/*---------------------------------------------------------------------------*\
  =========                 |
  \\      /  F ield         | OpenFOAM: The Open Source CFD Toolbox
   \\    /   O peration     | Website:  https://openfoam.org
    \\  /    A nd           | Version:  11
     \\/     M anipulation  |
\*---------------------------------------------------------------------------*/
Build  : 11-e1fc8c682ae6
Exec   : foamRun -solver incompressibleFluid -case .
Date   : Nov 29 2024
Time   : 15:05:33
Host   : "DESKTOP-76VE75G"
PID    : 17171
I/O    : uncollated
Case   : /home/moon/OpenFOAM/moon-11/run/Benchmark/motorBike
nProcs : 1
sigFpe : Enabling floating point exception trapping (FOAM_SIGFPE).
fileModificationChecking : Monitoring run-time modified files using timeStampMaster (fileModificationSkew 10)
allowSystemOperations : Allowing user-supplied system call operations

// * * * * * * * * * * * * * * * * * * * * * * * * * * * * * * * * * * * * * //
Create time

Create mesh for time = 0

Selecting solver incompressibleFluid
Selecting viscosity model constant
Selecting turbulence model type RAS
Selecting RAS turbulence model SpalartAllmaras
Selecting patchDistMethod meshWave
RAS
{
    model           SpalartAllmaras;
    turbulence      on;
    printCoeffs     on;
    sigmaNut        0.66666;
    kappa           0.41;
    Cb1             0.1355;
    Cb2             0.622;
    Cw2             0.3;
    Cw3             2;
    Cv1             7.1;
    Cs              0.3;
}

No MRF models present


SIMPLE: No convergence criteria found


SIMPLE: Operating solver in steady-state mode with 1 outer corrector
SIMPLE: Operating solver in SIMPLE mode



Starting time loop

Reading surface description:
    yNormal

streamlines streamlines:
    automatic track length specified through number of sub cycles : 5

forces forces:
--> FOAM Warning : 
    From function Foam::labelHashSet Foam::polyBoundaryMesh::patchSet(const Foam::UList<Foam::wordRe>&, bool, bool) const
    in file meshes/polyMesh/polyBoundaryMesh/polyBoundaryMesh.C at line 834
    Cannot find any patch or group names matching "motorBike.*"
    Not including porosity effects
forceCoeffs forces:
--> FOAM Warning : 
    From function Foam::labelHashSet Foam::polyBoundaryMesh::patchSet(const Foam::UList<Foam::wordRe>&, bool, bool) const
    in file meshes/polyMesh/polyBoundaryMesh/polyBoundaryMesh.C at line 834
    Cannot find any patch or group names matching "motorBike.*"
    Not including porosity effects
streamlines streamlines write:
    Seeded 20 particles
    Sampled 1720 locations
forceCoeffs forces write:
    Cm    = 0
    Cd    = 0
    Cl    = 0
    Cl(f) = 0
    Cl(r) = 0

Time = 1s

smoothSolver:  Solving for Ux, Initial residual = 0.151606, Final residual = 0.216461, No Iterations 1000
smoothSolver:  Solving for Uy, Initial residual = 0.999792, Final residual = 0.00322534, No Iterations 1
smoothSolver:  Solving for Uz, Initial residual = 0.99973, Final residual = 0.00393237, No Iterations 1
GAMG:  Solving for p, Initial residual = 1, Final residual = 0.0873795, No Iterations 1
time step continuity errors : sum local = 9.82528e-16, global = 6.60403e-17, cumulative = 6.60403e-17
smoothSolver:  Solving for nuTilda, Initial residual = 1, Final residual = 0.0064266, No Iterations 1
ExecutionTime = 0.111483 s  ClockTime = 0 s

forceCoeffs forces write:
    Cm    = 0
    Cd    = 0
    Cl    = 0
    Cl(f) = 0
    Cl(r) = 0

Time = 2s

smoothSolver:  Solving for Ux, Initial residual = 0.3404, Final residual = 0.321981, No Iterations 1000
smoothSolver:  Solving for Uy, Initial residual = 0.348985, Final residual = 0.00127945, No Iterations 1
smoothSolver:  Solving for Uz, Initial residual = 0.381836, Final residual = 0.00183469, No Iterations 1
GAMG:  Solving for p, Initial residual = 0.443244, Final residual = 0.0211511, No Iterations 1
time step continuity errors : sum local = 1.33041e-15, global = -4.43812e-18, cumulative = 6.16022e-17
smoothSolver:  Solving for nuTilda, Initial residual = 0.260549, Final residual = 0.00163588, No Iterations 1
ExecutionTime = 0.130602 s  ClockTime = 0 s

forceCoeffs forces write:
    Cm    = 0
    Cd    = 0
    Cl    = 0
    Cl(f) = 0
    Cl(r) = 0

Time = 3s

smoothSolver:  Solving for Ux, Initial residual = 0.387843, Final residual = 0.276677, No Iterations 1000
smoothSolver:  Solving for Uy, Initial residual = 0.279295, Final residual = 0.000984994, No Iterations 1
smoothSolver:  Solving for Uz, Initial residual = 0.295884, Final residual = 0.00139644, No Iterations 1
GAMG:  Solving for p, Initial residual = 0.319492, Final residual = 0.0129409, No Iterations 1
time step continuity errors : sum local = 1.3404e-15, global = -1.31512e-16, cumulative = -6.99102e-17
smoothSolver:  Solving for nuTilda, Initial residual = 0.138445, Final residual = 0.000850242, No Iterations 1
ExecutionTime = 0.150245 s  ClockTime = 0 s

forceCoeffs forces write:
    Cm    = 0
    Cd    = 0
    Cl    = 0
    Cl(f) = 0
    Cl(r) = 0

Time = 4s

smoothSolver:  Solving for Ux, Initial residual = 0.319355, Final residual = 0.227706, No Iterations 1000
smoothSolver:  Solving for Uy, Initial residual = 0.231936, Final residual = 0.000947646, No Iterations 1
smoothSolver:  Solving for Uz, Initial residual = 0.236829, Final residual = 0.00116274, No Iterations 1
GAMG:  Solving for p, Initial residual = 0.323552, Final residual = 0.0179087, No Iterations 1
time step continuity errors : sum local = 1.42749e-15, global = -1.33294e-16, cumulative = -2.03205e-16
smoothSolver:  Solving for nuTilda, Initial residual = 0.090572, Final residual = 0.000545096, No Iterations 1
ExecutionTime = 0.169194 s  ClockTime = 0 s

forceCoeffs forces write:
    Cm    = 0
    Cd    = 0
    Cl    = 0
    Cl(f) = 0
    Cl(r) = 0

Time = 5s

smoothSolver:  Solving for Ux, Initial residual = 0.290884, Final residual = 0.222151, No Iterations 1000
smoothSolver:  Solving for Uy, Initial residual = 0.206519, Final residual = 0.000778577, No Iterations 1
smoothSolver:  Solving for Uz, Initial residual = 0.181311, Final residual = 0.000825504, No Iterations 1
GAMG:  Solving for p, Initial residual = 0.418097, Final residual = 0.0182929, No Iterations 1
time step continuity errors : sum local = 1.44714e-15, global = -8.9947e-17, cumulative = -2.93152e-16
smoothSolver:  Solving for nuTilda, Initial residual = 0.0650803, Final residual = 0.000384628, No Iterations 1
ExecutionTime = 0.188198 s  ClockTime = 0 s

forceCoeffs forces write:
    Cm    = 0
    Cd    = 0
    Cl    = 0
    Cl(f) = 0
    Cl(r) = 0

Time = 6s

smoothSolver:  Solving for Ux, Initial residual = 0.302986, Final residual = 0.209757, No Iterations 1000
smoothSolver:  Solving for Uy, Initial residual = 0.209955, Final residual = 0.00076185, No Iterations 1
smoothSolver:  Solving for Uz, Initial residual = 0.153995, Final residual = 0.000560266, No Iterations 1
GAMG:  Solving for p, Initial residual = 0.533426, Final residual = 0.0212946, No Iterations 1
time step continuity errors : sum local = 1.55068e-15, global = -7.02588e-17, cumulative = -3.6341e-16
smoothSolver:  Solving for nuTilda, Initial residual = 0.0492661, Final residual = 0.000286506, No Iterations 1
ExecutionTime = 0.207236 s  ClockTime = 0 s

forceCoeffs forces write:
    Cm    = 0
    Cd    = 0
    Cl    = 0
    Cl(f) = 0
    Cl(r) = 0

Time = 7s

smoothSolver:  Solving for Ux, Initial residual = 0.301425, Final residual = 0.186516, No Iterations 1000
smoothSolver:  Solving for Uy, Initial residual = 0.191725, Final residual = 0.0007349, No Iterations 1
smoothSolver:  Solving for Uz, Initial residual = 0.155503, Final residual = 0.000591057, No Iterations 1
GAMG:  Solving for p, Initial residual = 0.383887, Final residual = 0.0159759, No Iterations 1
time step continuity errors : sum local = 1.52554e-15, global = -1.07194e-16, cumulative = -4.70604e-16
smoothSolver:  Solving for nuTilda, Initial residual = 0.0386024, Final residual = 0.000221311, No Iterations 1
ExecutionTime = 0.226003 s  ClockTime = 0 s

forceCoeffs forces write:
    Cm    = 0
    Cd    = 0
    Cl    = 0
    Cl(f) = 0
    Cl(r) = 0

Time = 8s

smoothSolver:  Solving for Ux, Initial residual = 0.291075, Final residual = 0.190487, No Iterations 1000
smoothSolver:  Solving for Uy, Initial residual = 0.164516, Final residual = 0.000589064, No Iterations 1
smoothSolver:  Solving for Uz, Initial residual = 0.145397, Final residual = 0.000560999, No Iterations 1
GAMG:  Solving for p, Initial residual = 0.389279, Final residual = 0.0178289, No Iterations 1
time step continuity errors : sum local = 1.59626e-15, global = -5.97593e-17, cumulative = -5.30364e-16
smoothSolver:  Solving for nuTilda, Initial residual = 0.0309537, Final residual = 0.000175233, No Iterations 1
ExecutionTime = 0.245335 s  ClockTime = 0 s

forceCoeffs forces write:
    Cm    = 0
    Cd    = 0
    Cl    = 0
    Cl(f) = 0
    Cl(r) = 0

Time = 9s

smoothSolver:  Solving for Ux, Initial residual = 0.253119, Final residual = 0.184807, No Iterations 1000
smoothSolver:  Solving for Uy, Initial residual = 0.168788, Final residual = 0.000649569, No Iterations 1
smoothSolver:  Solving for Uz, Initial residual = 0.149471, Final residual = 0.000572417, No Iterations 1
GAMG:  Solving for p, Initial residual = 0.444066, Final residual = 0.0177989, No Iterations 1
time step continuity errors : sum local = 1.59011e-15, global = -1.29918e-16, cumulative = -6.60282e-16
smoothSolver:  Solving for nuTilda, Initial residual = 0.0252208, Final residual = 0.000141183, No Iterations 1
ExecutionTime = 0.264219 s  ClockTime = 0 s

forceCoeffs forces write:
    Cm    = 0
    Cd    = 0
    Cl    = 0
    Cl(f) = 0
    Cl(r) = 0

Time = 10s

smoothSolver:  Solving for Ux, Initial residual = 0.246683, Final residual = 0.168705, No Iterations 1000
smoothSolver:  Solving for Uy, Initial residual = 0.173102, Final residual = 0.000649554, No Iterations 1
smoothSolver:  Solving for Uz, Initial residual = 0.151625, Final residual = 0.000578307, No Iterations 1
GAMG:  Solving for p, Initial residual = 0.519461, Final residual = 0.0222661, No Iterations 1
time step continuity errors : sum local = 1.55241e-15, global = -3.04709e-17, cumulative = -6.90753e-16
smoothSolver:  Solving for nuTilda, Initial residual = 0.0207776, Final residual = 0.000115147, No Iterations 1
ExecutionTime = 0.283292 s  ClockTime = 0 s

forceCoeffs forces write:
    Cm    = 0
    Cd    = 0
    Cl    = 0
    Cl(f) = 0
    Cl(r) = 0

Time = 11s

smoothSolver:  Solving for Ux, Initial residual = 0.244286, Final residual = 0.167895, No Iterations 1000
smoothSolver:  Solving for Uy, Initial residual = 0.168487, Final residual = 0.000557193, No Iterations 1
smoothSolver:  Solving for Uz, Initial residual = 0.151195, Final residual = 0.000591239, No Iterations 1
GAMG:  Solving for p, Initial residual = 0.483987, Final residual = 0.0208363, No Iterations 1
time step continuity errors : sum local = 1.51394e-15, global = -1.57989e-17, cumulative = -7.06551e-16
smoothSolver:  Solving for nuTilda, Initial residual = 0.0172421, Final residual = 9.46915e-05, No Iterations 1
ExecutionTime = 0.302367 s  ClockTime = 0 s

forceCoeffs forces write:
    Cm    = 0
    Cd    = 0
    Cl    = 0
    Cl(f) = 0
    Cl(r) = 0

Time = 12s

smoothSolver:  Solving for Ux, Initial residual = 0.227006, Final residual = 0.160223, No Iterations 1000
smoothSolver:  Solving for Uy, Initial residual = 0.163493, Final residual = 0.000527165, No Iterations 1
smoothSolver:  Solving for Uz, Initial residual = 0.146109, Final residual = 0.000604278, No Iterations 1
GAMG:  Solving for p, Initial residual = 0.479249, Final residual = 0.0206088, No Iterations 1
time step continuity errors : sum local = 1.54106e-15, global = 2.11901e-17, cumulative = -6.85361e-16
smoothSolver:  Solving for nuTilda, Initial residual = 0.0143716, Final residual = 7.82806e-05, No Iterations 1
ExecutionTime = 0.321399 s  ClockTime = 0 s

forceCoeffs forces write:
    Cm    = 0
    Cd    = 0
    Cl    = 0
    Cl(f) = 0
    Cl(r) = 0

Time = 13s

smoothSolver:  Solving for Ux, Initial residual = 0.22695, Final residual = 0.160824, No Iterations 1000
smoothSolver:  Solving for Uy, Initial residual = 0.164353, Final residual = 0.000551632, No Iterations 1
smoothSolver:  Solving for Uz, Initial residual = 0.149793, Final residual = 0.000646449, No Iterations 1
GAMG:  Solving for p, Initial residual = 0.469566, Final residual = 0.0217786, No Iterations 1
time step continuity errors : sum local = 1.55513e-15, global = -3.81186e-17, cumulative = -7.2348e-16
smoothSolver:  Solving for nuTilda, Initial residual = 0.0120048, Final residual = 6.49013e-05, No Iterations 1
ExecutionTime = 0.340297 s  ClockTime = 0 s

forceCoeffs forces write:
    Cm    = 0
    Cd    = 0
    Cl    = 0
    Cl(f) = 0
    Cl(r) = 0

Time = 14s

smoothSolver:  Solving for Ux, Initial residual = 0.226886, Final residual = 0.149985, No Iterations 1000
smoothSolver:  Solving for Uy, Initial residual = 0.165919, Final residual = 0.000569459, No Iterations 1
smoothSolver:  Solving for Uz, Initial residual = 0.143441, Final residual = 0.000549791, No Iterations 1
GAMG:  Solving for p, Initial residual = 0.473753, Final residual = 0.0205361, No Iterations 1
time step continuity errors : sum local = 1.44137e-15, global = 2.90244e-17, cumulative = -6.94456e-16
smoothSolver:  Solving for nuTilda, Initial residual = 0.0100302, Final residual = 5.38578e-05, No Iterations 1
ExecutionTime = 0.359032 s  ClockTime = 0 s

forceCoeffs forces write:
    Cm    = 0
    Cd    = 0
    Cl    = 0
    Cl(f) = 0
    Cl(r) = 0

Time = 15s

smoothSolver:  Solving for Ux, Initial residual = 0.215476, Final residual = 0.146271, No Iterations 1000
smoothSolver:  Solving for Uy, Initial residual = 0.16605, Final residual = 0.000585933, No Iterations 1
smoothSolver:  Solving for Uz, Initial residual = 0.136485, Final residual = 0.000476368, No Iterations 1
GAMG:  Solving for p, Initial residual = 0.508135, Final residual = 0.0208452, No Iterations 1
time step continuity errors : sum local = 1.52599e-15, global = -2.2275e-17, cumulative = -7.16731e-16
smoothSolver:  Solving for nuTilda, Initial residual = 0.00836897, Final residual = 4.46609e-05, No Iterations 1
ExecutionTime = 0.37804 s  ClockTime = 0 s

forceCoeffs forces write:
    Cm    = 0
    Cd    = 0
    Cl    = 0
    Cl(f) = 0
    Cl(r) = 0

Time = 16s

smoothSolver:  Solving for Ux, Initial residual = 0.207684, Final residual = 0.140752, No Iterations 1000
smoothSolver:  Solving for Uy, Initial residual = 0.167641, Final residual = 0.000573048, No Iterations 1
smoothSolver:  Solving for Uz, Initial residual = 0.13591, Final residual = 0.00046496, No Iterations 1
GAMG:  Solving for p, Initial residual = 0.517262, Final residual = 0.022078, No Iterations 1
time step continuity errors : sum local = 1.56332e-15, global = 9.49224e-18, cumulative = -7.07238e-16
smoothSolver:  Solving for nuTilda, Initial residual = 0.00696396, Final residual = 3.69569e-05, No Iterations 1
ExecutionTime = 0.397454 s  ClockTime = 0 s

forceCoeffs forces write:
    Cm    = 0
    Cd    = 0
    Cl    = 0
    Cl(f) = 0
    Cl(r) = 0

Time = 17s

smoothSolver:  Solving for Ux, Initial residual = 0.210234, Final residual = 0.141047, No Iterations 1000
smoothSolver:  Solving for Uy, Initial residual = 0.172231, Final residual = 0.000601963, No Iterations 1
smoothSolver:  Solving for Uz, Initial residual = 0.140321, Final residual = 0.000511364, No Iterations 1
GAMG:  Solving for p, Initial residual = 0.52261, Final residual = 0.0200296, No Iterations 1
time step continuity errors : sum local = 1.51948e-15, global = 4.29903e-17, cumulative = -6.64248e-16
smoothSolver:  Solving for nuTilda, Initial residual = 0.00577673, Final residual = 3.04911e-05, No Iterations 1
ExecutionTime = 0.416457 s  ClockTime = 0 s

forceCoeffs forces write:
    Cm    = 0
    Cd    = 0
    Cl    = 0
    Cl(f) = 0
    Cl(r) = 0

Time = 18s

smoothSolver:  Solving for Ux, Initial residual = 0.210635, Final residual = 0.136136, No Iterations 1000
smoothSolver:  Solving for Uy, Initial residual = 0.175267, Final residual = 0.000594441, No Iterations 1
smoothSolver:  Solving for Uz, Initial residual = 0.139168, Final residual = 0.000521897, No Iterations 1
GAMG:  Solving for p, Initial residual = 0.528502, Final residual = 0.0246428, No Iterations 1
time step continuity errors : sum local = 1.58459e-15, global = 1.21269e-16, cumulative = -5.42979e-16
smoothSolver:  Solving for nuTilda, Initial residual = 0.00477167, Final residual = 2.50569e-05, No Iterations 1
ExecutionTime = 0.435442 s  ClockTime = 0 s

forceCoeffs forces write:
    Cm    = 0
    Cd    = 0
    Cl    = 0
    Cl(f) = 0
    Cl(r) = 0

Time = 19s

smoothSolver:  Solving for Ux, Initial residual = 0.206517, Final residual = 0.148705, No Iterations 1000
smoothSolver:  Solving for Uy, Initial residual = 0.169929, Final residual = 0.000575972, No Iterations 1
smoothSolver:  Solving for Uz, Initial residual = 0.132774, Final residual = 0.000481099, No Iterations 1
GAMG:  Solving for p, Initial residual = 0.530696, Final residual = 0.0212916, No Iterations 1
time step continuity errors : sum local = 1.6351e-15, global = -1.59569e-18, cumulative = -5.44574e-16
smoothSolver:  Solving for nuTilda, Initial residual = 0.00392052, Final residual = 2.04922e-05, No Iterations 1
ExecutionTime = 0.454263 s  ClockTime = 0 s

forceCoeffs forces write:
    Cm    = 0
    Cd    = 0
    Cl    = 0
    Cl(f) = 0
    Cl(r) = 0

Time = 20s

smoothSolver:  Solving for Ux, Initial residual = 0.206168, Final residual = 0.147023, No Iterations 1000
smoothSolver:  Solving for Uy, Initial residual = 0.17835, Final residual = 0.00057826, No Iterations 1
smoothSolver:  Solving for Uz, Initial residual = 0.128751, Final residual = 0.000421519, No Iterations 1
GAMG:  Solving for p, Initial residual = 0.509763, Final residual = 0.0202749, No Iterations 1
time step continuity errors : sum local = 1.49759e-15, global = 4.04311e-17, cumulative = -5.04143e-16
smoothSolver:  Solving for nuTilda, Initial residual = 0.00320152, Final residual = 1.66664e-05, No Iterations 1
ExecutionTime = 0.473395 s  ClockTime = 0 s

forceCoeffs forces write:
    Cm    = 0
    Cd    = 0
    Cl    = 0
    Cl(f) = 0
    Cl(r) = 0

Time = 21s

smoothSolver:  Solving for Ux, Initial residual = 0.209813, Final residual = 0.142465, No Iterations 1000
smoothSolver:  Solving for Uy, Initial residual = 0.184799, Final residual = 0.000612189, No Iterations 1
smoothSolver:  Solving for Uz, Initial residual = 0.124742, Final residual = 0.00039191, No Iterations 1
GAMG:  Solving for p, Initial residual = 0.474097, Final residual = 0.0196989, No Iterations 1
time step continuity errors : sum local = 1.60517e-15, global = 7.77924e-17, cumulative = -4.26351e-16
smoothSolver:  Solving for nuTilda, Initial residual = 0.00259678, Final residual = 1.34721e-05, No Iterations 1
ExecutionTime = 0.492278 s  ClockTime = 0 s

forceCoeffs forces write:
    Cm    = 0
    Cd    = 0
    Cl    = 0
    Cl(f) = 0
    Cl(r) = 0

Time = 22s

smoothSolver:  Solving for Ux, Initial residual = 0.210699, Final residual = 0.14421, No Iterations 1000
smoothSolver:  Solving for Uy, Initial residual = 0.195123, Final residual = 0.000704715, No Iterations 1
smoothSolver:  Solving for Uz, Initial residual = 0.127723, Final residual = 0.000411981, No Iterations 1
GAMG:  Solving for p, Initial residual = 0.471679, Final residual = 0.0204844, No Iterations 1
time step continuity errors : sum local = 1.48506e-15, global = 2.83868e-18, cumulative = -4.23512e-16
smoothSolver:  Solving for nuTilda, Initial residual = 0.00209175, Final residual = 1.08208e-05, No Iterations 1
ExecutionTime = 0.511294 s  ClockTime = 0 s

forceCoeffs forces write:
    Cm    = 0
    Cd    = 0
    Cl    = 0
    Cl(f) = 0
    Cl(r) = 0

Time = 23s

smoothSolver:  Solving for Ux, Initial residual = 0.210981, Final residual = 0.140377, No Iterations 1000
smoothSolver:  Solving for Uy, Initial residual = 0.183825, Final residual = 0.000664593, No Iterations 1
smoothSolver:  Solving for Uz, Initial residual = 0.13473, Final residual = 0.000480784, No Iterations 1
GAMG:  Solving for p, Initial residual = 0.475089, Final residual = 0.0212796, No Iterations 1
time step continuity errors : sum local = 1.52529e-15, global = -6.11428e-17, cumulative = -4.84655e-16
smoothSolver:  Solving for nuTilda, Initial residual = 0.0016726, Final residual = 8.63263e-06, No Iterations 1
ExecutionTime = 0.53049 s  ClockTime = 1 s

forceCoeffs forces write:
    Cm    = 0
    Cd    = 0
    Cl    = 0
    Cl(f) = 0
    Cl(r) = 0

Time = 24s

smoothSolver:  Solving for Ux, Initial residual = 0.203363, Final residual = 0.145164, No Iterations 1000
smoothSolver:  Solving for Uy, Initial residual = 0.183997, Final residual = 0.000641955, No Iterations 1
smoothSolver:  Solving for Uz, Initial residual = 0.139411, Final residual = 0.000509564, No Iterations 1
GAMG:  Solving for p, Initial residual = 0.449853, Final residual = 0.0213564, No Iterations 1
time step continuity errors : sum local = 1.49696e-15, global = -2.13906e-17, cumulative = -5.06046e-16
smoothSolver:  Solving for nuTilda, Initial residual = 0.00132738, Final residual = 6.83884e-06, No Iterations 1
ExecutionTime = 0.550019 s  ClockTime = 1 s

forceCoeffs forces write:
    Cm    = 0
    Cd    = 0
    Cl    = 0
    Cl(f) = 0
    Cl(r) = 0

Time = 25s

smoothSolver:  Solving for Ux, Initial residual = 0.203688, Final residual = 0.146892, No Iterations 1000
smoothSolver:  Solving for Uy, Initial residual = 0.187843, Final residual = 0.000658505, No Iterations 1
smoothSolver:  Solving for Uz, Initial residual = 0.135605, Final residual = 0.000457505, No Iterations 1
GAMG:  Solving for p, Initial residual = 0.472458, Final residual = 0.0191729, No Iterations 1
time step continuity errors : sum local = 1.55591e-15, global = -9.50303e-18, cumulative = -5.15549e-16
smoothSolver:  Solving for nuTilda, Initial residual = 0.00104538, Final residual = 5.37923e-06, No Iterations 1
ExecutionTime = 0.569643 s  ClockTime = 1 s

forceCoeffs forces write:
    Cm    = 0
    Cd    = 0
    Cl    = 0
    Cl(f) = 0
    Cl(r) = 0

Time = 26s

smoothSolver:  Solving for Ux, Initial residual = 0.193509, Final residual = 0.125743, No Iterations 1000
smoothSolver:  Solving for Uy, Initial residual = 0.190946, Final residual = 0.000690793, No Iterations 1
smoothSolver:  Solving for Uz, Initial residual = 0.137246, Final residual = 0.00045293, No Iterations 1
GAMG:  Solving for p, Initial residual = 0.482572, Final residual = 0.0210632, No Iterations 1
time step continuity errors : sum local = 1.60883e-15, global = 7.41736e-17, cumulative = -4.41375e-16
smoothSolver:  Solving for nuTilda, Initial residual = 0.000816989, Final residual = 4.2007e-06, No Iterations 1
ExecutionTime = 0.589003 s  ClockTime = 1 s

forceCoeffs forces write:
    Cm    = 0
    Cd    = 0
    Cl    = 0
    Cl(f) = 0
    Cl(r) = 0

Time = 27s

smoothSolver:  Solving for Ux, Initial residual = 0.191428, Final residual = 0.126637, No Iterations 1000
smoothSolver:  Solving for Uy, Initial residual = 0.18087, Final residual = 0.00059687, No Iterations 1
smoothSolver:  Solving for Uz, Initial residual = 0.14038, Final residual = 0.000475474, No Iterations 1
GAMG:  Solving for p, Initial residual = 0.530986, Final residual = 0.0208125, No Iterations 1
time step continuity errors : sum local = 1.54161e-15, global = 4.33461e-17, cumulative = -3.98029e-16
smoothSolver:  Solving for nuTilda, Initial residual = 0.000633617, Final residual = 3.25668e-06, No Iterations 1
ExecutionTime = 0.60823 s  ClockTime = 1 s

forceCoeffs forces write:
    Cm    = 0
    Cd    = 0
    Cl    = 0
    Cl(f) = 0
    Cl(r) = 0

Time = 28s

smoothSolver:  Solving for Ux, Initial residual = 0.188516, Final residual = 0.125332, No Iterations 1000
smoothSolver:  Solving for Uy, Initial residual = 0.180723, Final residual = 0.000568085, No Iterations 1
smoothSolver:  Solving for Uz, Initial residual = 0.135483, Final residual = 0.000441653, No Iterations 1
GAMG:  Solving for p, Initial residual = 0.527269, Final residual = 0.0230138, No Iterations 1
time step continuity errors : sum local = 1.63479e-15, global = 7.64434e-18, cumulative = -3.90385e-16
smoothSolver:  Solving for nuTilda, Initial residual = 0.000487678, Final residual = 2.50663e-06, No Iterations 1
ExecutionTime = 0.627486 s  ClockTime = 1 s

forceCoeffs forces write:
    Cm    = 0
    Cd    = 0
    Cl    = 0
    Cl(f) = 0
    Cl(r) = 0

Time = 29s

smoothSolver:  Solving for Ux, Initial residual = 0.189692, Final residual = 0.119956, No Iterations 1000
smoothSolver:  Solving for Uy, Initial residual = 0.19462, Final residual = 0.000684866, No Iterations 1
smoothSolver:  Solving for Uz, Initial residual = 0.135562, Final residual = 0.0004125, No Iterations 1
GAMG:  Solving for p, Initial residual = 0.472597, Final residual = 0.0203005, No Iterations 1
time step continuity errors : sum local = 1.51479e-15, global = 1.7532e-17, cumulative = -3.72853e-16
smoothSolver:  Solving for nuTilda, Initial residual = 0.000372545, Final residual = 1.91554e-06, No Iterations 1
ExecutionTime = 0.646721 s  ClockTime = 1 s

forceCoeffs forces write:
    Cm    = 0
    Cd    = 0
    Cl    = 0
    Cl(f) = 0
    Cl(r) = 0

Time = 30s

smoothSolver:  Solving for Ux, Initial residual = 0.185681, Final residual = 0.125577, No Iterations 1000
smoothSolver:  Solving for Uy, Initial residual = 0.194692, Final residual = 0.000719132, No Iterations 1
smoothSolver:  Solving for Uz, Initial residual = 0.139844, Final residual = 0.000451207, No Iterations 1
GAMG:  Solving for p, Initial residual = 0.472936, Final residual = 0.0195144, No Iterations 1
time step continuity errors : sum local = 1.50347e-15, global = 1.06165e-16, cumulative = -2.66687e-16
smoothSolver:  Solving for nuTilda, Initial residual = 0.000282499, Final residual = 1.45349e-06, No Iterations 1
ExecutionTime = 0.665819 s  ClockTime = 1 s

forceCoeffs forces write:
    Cm    = 0
    Cd    = 0
    Cl    = 0
    Cl(f) = 0
    Cl(r) = 0

Time = 31s

smoothSolver:  Solving for Ux, Initial residual = 0.177452, Final residual = 0.115039, No Iterations 1000
smoothSolver:  Solving for Uy, Initial residual = 0.183533, Final residual = 0.000670061, No Iterations 1
smoothSolver:  Solving for Uz, Initial residual = 0.147027, Final residual = 0.000495724, No Iterations 1
GAMG:  Solving for p, Initial residual = 0.480198, Final residual = 0.0179863, No Iterations 1
time step continuity errors : sum local = 1.57476e-15, global = 4.30265e-17, cumulative = -2.23661e-16
smoothSolver:  Solving for nuTilda, Initial residual = 0.000212674, Final residual = 1.09523e-06, No Iterations 1
ExecutionTime = 0.685071 s  ClockTime = 1 s

forceCoeffs forces write:
    Cm    = 0
    Cd    = 0
    Cl    = 0
    Cl(f) = 0
    Cl(r) = 0

Time = 32s

smoothSolver:  Solving for Ux, Initial residual = 0.198285, Final residual = 0.136922, No Iterations 1000
smoothSolver:  Solving for Uy, Initial residual = 0.192556, Final residual = 0.000687571, No Iterations 1
smoothSolver:  Solving for Uz, Initial residual = 0.152557, Final residual = 0.000520428, No Iterations 1
GAMG:  Solving for p, Initial residual = 0.530403, Final residual = 0.0204362, No Iterations 1
time step continuity errors : sum local = 1.63758e-15, global = 6.83885e-17, cumulative = -1.55272e-16
smoothSolver:  Solving for nuTilda, Initial residual = 0.000158979, Final residual = 8.19641e-07, No Iterations 1
ExecutionTime = 0.704337 s  ClockTime = 1 s

forceCoeffs forces write:
    Cm    = 0
    Cd    = 0
    Cl    = 0
    Cl(f) = 0
    Cl(r) = 0

Time = 33s

smoothSolver:  Solving for Ux, Initial residual = 0.201893, Final residual = 0.142217, No Iterations 1000
smoothSolver:  Solving for Uy, Initial residual = 0.190267, Final residual = 0.00070694, No Iterations 1
smoothSolver:  Solving for Uz, Initial residual = 0.151237, Final residual = 0.000532489, No Iterations 1
GAMG:  Solving for p, Initial residual = 0.533055, Final residual = 0.0227612, No Iterations 1
time step continuity errors : sum local = 1.62924e-15, global = 1.24865e-16, cumulative = -3.04073e-17
smoothSolver:  Solving for nuTilda, Initial residual = 0.000118024, Final residual = 6.09301e-07, No Iterations 1
ExecutionTime = 0.723618 s  ClockTime = 1 s

forceCoeffs forces write:
    Cm    = 0
    Cd    = 0
    Cl    = 0
    Cl(f) = 0
    Cl(r) = 0

Time = 34s

smoothSolver:  Solving for Ux, Initial residual = 0.20031, Final residual = 0.130157, No Iterations 1000
smoothSolver:  Solving for Uy, Initial residual = 0.189146, Final residual = 0.000682714, No Iterations 1
smoothSolver:  Solving for Uz, Initial residual = 0.153579, Final residual = 0.000543832, No Iterations 1
GAMG:  Solving for p, Initial residual = 0.513925, Final residual = 0.023596, No Iterations 1
time step continuity errors : sum local = 1.51054e-15, global = 5.01904e-17, cumulative = 1.97831e-17
smoothSolver:  Solving for nuTilda, Initial residual = 8.70341e-05, Final residual = 4.49983e-07, No Iterations 1
ExecutionTime = 0.742963 s  ClockTime = 1 s

forceCoeffs forces write:
    Cm    = 0
    Cd    = 0
    Cl    = 0
    Cl(f) = 0
    Cl(r) = 0

Time = 35s

smoothSolver:  Solving for Ux, Initial residual = 0.202805, Final residual = 0.134266, No Iterations 1000
smoothSolver:  Solving for Uy, Initial residual = 0.183675, Final residual = 0.000627227, No Iterations 1
smoothSolver:  Solving for Uz, Initial residual = 0.16362, Final residual = 0.000568312, No Iterations 1
GAMG:  Solving for p, Initial residual = 0.502799, Final residual = 0.0203247, No Iterations 1
time step continuity errors : sum local = 1.60308e-15, global = 9.83072e-17, cumulative = 1.1809e-16
smoothSolver:  Solving for nuTilda, Initial residual = 6.37638e-05, Final residual = 3.30207e-07, No Iterations 1
ExecutionTime = 0.76224 s  ClockTime = 1 s

forceCoeffs forces write:
    Cm    = 0
    Cd    = 0
    Cl    = 0
    Cl(f) = 0
    Cl(r) = 0

Time = 36s

smoothSolver:  Solving for Ux, Initial residual = 0.204137, Final residual = 0.140219, No Iterations 1000
smoothSolver:  Solving for Uy, Initial residual = 0.170466, Final residual = 0.000594392, No Iterations 1
smoothSolver:  Solving for Uz, Initial residual = 0.162244, Final residual = 0.000601154, No Iterations 1
GAMG:  Solving for p, Initial residual = 0.479757, Final residual = 0.0223511, No Iterations 1
time step continuity errors : sum local = 1.61015e-15, global = 6.05232e-17, cumulative = 1.78614e-16
smoothSolver:  Solving for nuTilda, Initial residual = 4.64204e-05, Final residual = 2.40809e-07, No Iterations 1
ExecutionTime = 0.781335 s  ClockTime = 1 s

forceCoeffs forces write:
    Cm    = 0
    Cd    = 0
    Cl    = 0
    Cl(f) = 0
    Cl(r) = 0

Time = 37s

smoothSolver:  Solving for Ux, Initial residual = 0.200728, Final residual = 0.138244, No Iterations 1000
smoothSolver:  Solving for Uy, Initial residual = 0.173686, Final residual = 0.000632063, No Iterations 1
smoothSolver:  Solving for Uz, Initial residual = 0.151944, Final residual = 0.000538056, No Iterations 1
GAMG:  Solving for p, Initial residual = 0.476523, Final residual = 0.023639, No Iterations 1
time step continuity errors : sum local = 1.55823e-15, global = 9.41491e-17, cumulative = 2.72763e-16
smoothSolver:  Solving for nuTilda, Initial residual = 3.35873e-05, Final residual = 1.74554e-07, No Iterations 1
ExecutionTime = 0.800699 s  ClockTime = 1 s

forceCoeffs forces write:
    Cm    = 0
    Cd    = 0
    Cl    = 0
    Cl(f) = 0
    Cl(r) = 0

Time = 38s

smoothSolver:  Solving for Ux, Initial residual = 0.204813, Final residual = 0.13215, No Iterations 1000
smoothSolver:  Solving for Uy, Initial residual = 0.181812, Final residual = 0.000673375, No Iterations 1
smoothSolver:  Solving for Uz, Initial residual = 0.145956, Final residual = 0.000539757, No Iterations 1
GAMG:  Solving for p, Initial residual = 0.46873, Final residual = 0.0207374, No Iterations 1
time step continuity errors : sum local = 1.58979e-15, global = 1.99229e-17, cumulative = 2.92686e-16
smoothSolver:  Solving for nuTilda, Initial residual = 2.41576e-05, Final residual = 1.25786e-07, No Iterations 1
ExecutionTime = 0.820025 s  ClockTime = 1 s

forceCoeffs forces write:
    Cm    = 0
    Cd    = 0
    Cl    = 0
    Cl(f) = 0
    Cl(r) = 0

Time = 39s

smoothSolver:  Solving for Ux, Initial residual = 0.201111, Final residual = 0.13269, No Iterations 1000
smoothSolver:  Solving for Uy, Initial residual = 0.198826, Final residual = 0.000769333, No Iterations 1
smoothSolver:  Solving for Uz, Initial residual = 0.141453, Final residual = 0.000498971, No Iterations 1
GAMG:  Solving for p, Initial residual = 0.47066, Final residual = 0.0207741, No Iterations 1
time step continuity errors : sum local = 1.60451e-15, global = 4.81892e-17, cumulative = 3.40875e-16
smoothSolver:  Solving for nuTilda, Initial residual = 1.72752e-05, Final residual = 9.01253e-08, No Iterations 1
ExecutionTime = 0.839401 s  ClockTime = 1 s

forceCoeffs forces write:
    Cm    = 0
    Cd    = 0
    Cl    = 0
    Cl(f) = 0
    Cl(r) = 0

Time = 40s

smoothSolver:  Solving for Ux, Initial residual = 0.204885, Final residual = 0.143768, No Iterations 1000
smoothSolver:  Solving for Uy, Initial residual = 0.202014, Final residual = 0.000750495, No Iterations 1
smoothSolver:  Solving for Uz, Initial residual = 0.13442, Final residual = 0.000431224, No Iterations 1
GAMG:  Solving for p, Initial residual = 0.476734, Final residual = 0.0195313, No Iterations 1
time step continuity errors : sum local = 1.49481e-15, global = 7.09431e-17, cumulative = 4.11818e-16
smoothSolver:  Solving for nuTilda, Initial residual = 1.22846e-05, Final residual = 6.42167e-08, No Iterations 1
ExecutionTime = 0.858492 s  ClockTime = 1 s

forceCoeffs forces write:
    Cm    = 0
    Cd    = 0
    Cl    = 0
    Cl(f) = 0
    Cl(r) = 0

Time = 41s

smoothSolver:  Solving for Ux, Initial residual = 0.200629, Final residual = 0.131474, No Iterations 1000
smoothSolver:  Solving for Uy, Initial residual = 0.198216, Final residual = 0.00071523, No Iterations 1
smoothSolver:  Solving for Uz, Initial residual = 0.133844, Final residual = 0.000456056, No Iterations 1
GAMG:  Solving for p, Initial residual = 0.521564, Final residual = 0.0204931, No Iterations 1
time step continuity errors : sum local = 1.49724e-15, global = 3.52163e-17, cumulative = 4.47034e-16
smoothSolver:  Solving for nuTilda, Initial residual = 8.68851e-06, Final residual = 4.55098e-08, No Iterations 1
ExecutionTime = 0.877873 s  ClockTime = 1 s

forceCoeffs forces write:
    Cm    = 0
    Cd    = 0
    Cl    = 0
    Cl(f) = 0
    Cl(r) = 0

Time = 42s

smoothSolver:  Solving for Ux, Initial residual = 0.200679, Final residual = 0.141432, No Iterations 1000
smoothSolver:  Solving for Uy, Initial residual = 0.191873, Final residual = 0.000694552, No Iterations 1
smoothSolver:  Solving for Uz, Initial residual = 0.146068, Final residual = 0.000537687, No Iterations 1
GAMG:  Solving for p, Initial residual = 0.55773, Final residual = 0.021567, No Iterations 1
time step continuity errors : sum local = 1.58991e-15, global = 2.84038e-17, cumulative = 4.75438e-16
smoothSolver:  Solving for nuTilda, Initial residual = 6.11289e-06, Final residual = 3.20838e-08, No Iterations 1
ExecutionTime = 0.896921 s  ClockTime = 1 s

forceCoeffs forces write:
    Cm    = 0
    Cd    = 0
    Cl    = 0
    Cl(f) = 0
    Cl(r) = 0

Time = 43s

smoothSolver:  Solving for Ux, Initial residual = 0.196458, Final residual = 0.140602, No Iterations 1000
smoothSolver:  Solving for Uy, Initial residual = 0.182007, Final residual = 0.000622129, No Iterations 1
smoothSolver:  Solving for Uz, Initial residual = 0.148887, Final residual = 0.000559153, No Iterations 1
GAMG:  Solving for p, Initial residual = 0.533701, Final residual = 0.0229445, No Iterations 1
time step continuity errors : sum local = 1.55718e-15, global = 5.48774e-17, cumulative = 5.30315e-16
smoothSolver:  Solving for nuTilda, Initial residual = 4.27894e-06, Final residual = 2.25038e-08, No Iterations 1
ExecutionTime = 0.915853 s  ClockTime = 1 s

forceCoeffs forces write:
    Cm    = 0
    Cd    = 0
    Cl    = 0
    Cl(f) = 0
    Cl(r) = 0

Time = 44s

smoothSolver:  Solving for Ux, Initial residual = 0.203591, Final residual = 0.136997, No Iterations 1000
smoothSolver:  Solving for Uy, Initial residual = 0.193436, Final residual = 0.000653711, No Iterations 1
smoothSolver:  Solving for Uz, Initial residual = 0.143299, Final residual = 0.000496886, No Iterations 1
GAMG:  Solving for p, Initial residual = 0.529404, Final residual = 0.0256213, No Iterations 1
time step continuity errors : sum local = 1.62719e-15, global = 5.28107e-17, cumulative = 5.83126e-16
smoothSolver:  Solving for nuTilda, Initial residual = 2.98046e-06, Final residual = 1.57065e-08, No Iterations 1
ExecutionTime = 0.935011 s  ClockTime = 1 s

forceCoeffs forces write:
    Cm    = 0
    Cd    = 0
    Cl    = 0
    Cl(f) = 0
    Cl(r) = 0

Time = 45s

smoothSolver:  Solving for Ux, Initial residual = 0.18203, Final residual = 0.130034, No Iterations 1000
smoothSolver:  Solving for Uy, Initial residual = 0.196571, Final residual = 0.000699532, No Iterations 1
smoothSolver:  Solving for Uz, Initial residual = 0.140447, Final residual = 0.000452613, No Iterations 1
GAMG:  Solving for p, Initial residual = 0.508274, Final residual = 0.0231687, No Iterations 1
time step continuity errors : sum local = 1.57367e-15, global = 8.99587e-17, cumulative = 6.73085e-16
smoothSolver:  Solving for nuTilda, Initial residual = 2.06611e-06, Final residual = 1.09099e-08, No Iterations 1
ExecutionTime = 0.954222 s  ClockTime = 1 s

forceCoeffs forces write:
    Cm    = 0
    Cd    = 0
    Cl    = 0
    Cl(f) = 0
    Cl(r) = 0

Time = 46s

smoothSolver:  Solving for Ux, Initial residual = 0.204543, Final residual = 0.139041, No Iterations 1000
smoothSolver:  Solving for Uy, Initial residual = 0.197079, Final residual = 0.000697663, No Iterations 1
smoothSolver:  Solving for Uz, Initial residual = 0.149977, Final residual = 0.000537772, No Iterations 1
GAMG:  Solving for p, Initial residual = 0.517319, Final residual = 0.0227322, No Iterations 1
time step continuity errors : sum local = 1.64279e-15, global = 2.96558e-17, cumulative = 7.02741e-16
smoothSolver:  Solving for nuTilda, Initial residual = 1.42563e-06, Final residual = 7.5429e-09, No Iterations 1
ExecutionTime = 0.973345 s  ClockTime = 1 s

forceCoeffs forces write:
    Cm    = 0
    Cd    = 0
    Cl    = 0
    Cl(f) = 0
    Cl(r) = 0

Time = 47s

smoothSolver:  Solving for Ux, Initial residual = 0.202219, Final residual = 0.136011, No Iterations 1000
smoothSolver:  Solving for Uy, Initial residual = 0.181373, Final residual = 0.000619388, No Iterations 1
smoothSolver:  Solving for Uz, Initial residual = 0.152429, Final residual = 0.000595557, No Iterations 1
GAMG:  Solving for p, Initial residual = 0.478913, Final residual = 0.0202002, No Iterations 1
time step continuity errors : sum local = 1.52684e-15, global = 6.43855e-17, cumulative = 7.67126e-16
smoothSolver:  Solving for nuTilda, Initial residual = 9.79289e-07, Final residual = 5.19147e-09, No Iterations 1
ExecutionTime = 0.994116 s  ClockTime = 1 s

forceCoeffs forces write:
    Cm    = 0
    Cd    = 0
    Cl    = 0
    Cl(f) = 0
    Cl(r) = 0

Time = 48s

smoothSolver:  Solving for Ux, Initial residual = 0.210614, Final residual = 0.133891, No Iterations 1000
smoothSolver:  Solving for Uy, Initial residual = 0.182757, Final residual = 0.000619206, No Iterations 1
smoothSolver:  Solving for Uz, Initial residual = 0.144019, Final residual = 0.000570303, No Iterations 1
GAMG:  Solving for p, Initial residual = 0.500573, Final residual = 0.0232133, No Iterations 1
time step continuity errors : sum local = 1.46368e-15, global = -5.02966e-17, cumulative = 7.1683e-16
smoothSolver:  Solving for nuTilda, Initial residual = 6.6976e-07, Final residual = 3.55742e-09, No Iterations 1
ExecutionTime = 1.01603 s  ClockTime = 1 s

forceCoeffs forces write:
    Cm    = 0
    Cd    = 0
    Cl    = 0
    Cl(f) = 0
    Cl(r) = 0

Time = 49s

smoothSolver:  Solving for Ux, Initial residual = 0.207849, Final residual = 0.137734, No Iterations 1000
smoothSolver:  Solving for Uy, Initial residual = 0.176544, Final residual = 0.000632011, No Iterations 1
smoothSolver:  Solving for Uz, Initial residual = 0.128532, Final residual = 0.000491162, No Iterations 1
GAMG:  Solving for p, Initial residual = 0.49728, Final residual = 0.0231585, No Iterations 1
time step continuity errors : sum local = 1.54325e-15, global = -2.76323e-17, cumulative = 6.89197e-16
smoothSolver:  Solving for nuTilda, Initial residual = 4.56132e-07, Final residual = 2.42731e-09, No Iterations 1
ExecutionTime = 1.0353 s  ClockTime = 1 s

forceCoeffs forces write:
    Cm    = 0
    Cd    = 0
    Cl    = 0
    Cl(f) = 0
    Cl(r) = 0

Time = 50s

smoothSolver:  Solving for Ux, Initial residual = 0.200697, Final residual = 0.136949, No Iterations 1000
smoothSolver:  Solving for Uy, Initial residual = 0.170487, Final residual = 0.000640778, No Iterations 1
smoothSolver:  Solving for Uz, Initial residual = 0.124629, Final residual = 0.000448573, No Iterations 1
GAMG:  Solving for p, Initial residual = 0.501718, Final residual = 0.0242829, No Iterations 1
time step continuity errors : sum local = 1.49559e-15, global = -1.58663e-17, cumulative = 6.73331e-16
smoothSolver:  Solving for nuTilda, Initial residual = 3.09369e-07, Final residual = 1.64935e-09, No Iterations 1
ExecutionTime = 1.05463 s  ClockTime = 1 s

forceCoeffs forces write:
    Cm    = 0
    Cd    = 0
    Cl    = 0
    Cl(f) = 0
    Cl(r) = 0

Time = 51s

smoothSolver:  Solving for Ux, Initial residual = 0.200737, Final residual = 0.140195, No Iterations 1000
smoothSolver:  Solving for Uy, Initial residual = 0.168816, Final residual = 0.000634682, No Iterations 1
smoothSolver:  Solving for Uz, Initial residual = 0.124317, Final residual = 0.00043829, No Iterations 1
GAMG:  Solving for p, Initial residual = 0.51207, Final residual = 0.0249373, No Iterations 1
time step continuity errors : sum local = 1.51823e-15, global = 4.62658e-17, cumulative = 7.19597e-16
smoothSolver:  Solving for nuTilda, Initial residual = 2.08993e-07, Final residual = 1.11622e-09, No Iterations 1
ExecutionTime = 1.07439 s  ClockTime = 1 s

forceCoeffs forces write:
    Cm    = 0
    Cd    = 0
    Cl    = 0
    Cl(f) = 0
    Cl(r) = 0

Time = 52s

smoothSolver:  Solving for Ux, Initial residual = 0.202645, Final residual = 0.13511, No Iterations 1000
smoothSolver:  Solving for Uy, Initial residual = 0.180565, Final residual = 0.0006557, No Iterations 1
smoothSolver:  Solving for Uz, Initial residual = 0.142304, Final residual = 0.000553595, No Iterations 1
GAMG:  Solving for p, Initial residual = 0.483435, Final residual = 0.0215985, No Iterations 1
time step continuity errors : sum local = 1.50641e-15, global = 3.75132e-18, cumulative = 7.23348e-16
smoothSolver:  Solving for nuTilda, Initial residual = 1.40639e-07, Final residual = 7.52459e-10, No Iterations 1
ExecutionTime = 1.09401 s  ClockTime = 1 s

forceCoeffs forces write:
    Cm    = 0
    Cd    = 0
    Cl    = 0
    Cl(f) = 0
    Cl(r) = 0

Time = 53s

smoothSolver:  Solving for Ux, Initial residual = 0.193339, Final residual = 0.135238, No Iterations 1000
smoothSolver:  Solving for Uy, Initial residual = 0.171025, Final residual = 0.00060462, No Iterations 1
smoothSolver:  Solving for Uz, Initial residual = 0.149212, Final residual = 0.000611738, No Iterations 1
GAMG:  Solving for p, Initial residual = 0.479377, Final residual = 0.0221875, No Iterations 1
time step continuity errors : sum local = 1.46367e-15, global = -2.69597e-17, cumulative = 6.96389e-16
smoothSolver:  Solving for nuTilda, Initial residual = 9.42859e-08, Final residual = 5.05314e-10, No Iterations 1
ExecutionTime = 1.11312 s  ClockTime = 1 s

forceCoeffs forces write:
    Cm    = 0
    Cd    = 0
    Cl    = 0
    Cl(f) = 0
    Cl(r) = 0

Time = 54s

smoothSolver:  Solving for Ux, Initial residual = 0.200625, Final residual = 0.136289, No Iterations 1000
smoothSolver:  Solving for Uy, Initial residual = 0.177621, Final residual = 0.000656133, No Iterations 1
smoothSolver:  Solving for Uz, Initial residual = 0.142293, Final residual = 0.0005971, No Iterations 1
GAMG:  Solving for p, Initial residual = 0.490614, Final residual = 0.0210449, No Iterations 1
time step continuity errors : sum local = 1.54413e-15, global = -1.85393e-17, cumulative = 6.77849e-16
smoothSolver:  Solving for nuTilda, Initial residual = 6.29796e-08, Final residual = 3.38088e-10, No Iterations 1
ExecutionTime = 1.13224 s  ClockTime = 1 s

forceCoeffs forces write:
    Cm    = 0
    Cd    = 0
    Cl    = 0
    Cl(f) = 0
    Cl(r) = 0

Time = 55s

smoothSolver:  Solving for Ux, Initial residual = 0.194662, Final residual = 0.134002, No Iterations 1000
smoothSolver:  Solving for Uy, Initial residual = 0.173122, Final residual = 0.000633704, No Iterations 1
smoothSolver:  Solving for Uz, Initial residual = 0.133157, Final residual = 0.000506089, No Iterations 1
GAMG:  Solving for p, Initial residual = 0.498682, Final residual = 0.0199612, No Iterations 1
time step continuity errors : sum local = 1.51948e-15, global = 9.66098e-18, cumulative = 6.8751e-16
smoothSolver:  Solving for nuTilda, Initial residual = 4.19189e-08, Final residual = 2.25388e-10, No Iterations 1
ExecutionTime = 1.15211 s  ClockTime = 1 s

forceCoeffs forces write:
    Cm    = 0
    Cd    = 0
    Cl    = 0
    Cl(f) = 0
    Cl(r) = 0

Time = 56s

smoothSolver:  Solving for Ux, Initial residual = 0.201992, Final residual = 0.133618, No Iterations 1000
smoothSolver:  Solving for Uy, Initial residual = 0.168337, Final residual = 0.000581818, No Iterations 1
smoothSolver:  Solving for Uz, Initial residual = 0.124663, Final residual = 0.000434923, No Iterations 1
GAMG:  Solving for p, Initial residual = 0.510817, Final residual = 0.0228303, No Iterations 1
time step continuity errors : sum local = 1.52451e-15, global = 4.40502e-18, cumulative = 6.91915e-16
smoothSolver:  Solving for nuTilda, Initial residual = 2.78048e-08, Final residual = 1.4973e-10, No Iterations 1
ExecutionTime = 1.17166 s  ClockTime = 1 s

forceCoeffs forces write:
    Cm    = 0
    Cd    = 0
    Cl    = 0
    Cl(f) = 0
    Cl(r) = 0

Time = 57s

smoothSolver:  Solving for Ux, Initial residual = 0.190689, Final residual = 0.130597, No Iterations 1000
smoothSolver:  Solving for Uy, Initial residual = 0.169934, Final residual = 0.000595477, No Iterations 1
smoothSolver:  Solving for Uz, Initial residual = 0.121031, Final residual = 0.00040772, No Iterations 1
GAMG:  Solving for p, Initial residual = 0.521478, Final residual = 0.0256782, No Iterations 1
time step continuity errors : sum local = 1.56396e-15, global = 5.28667e-17, cumulative = 7.44782e-16
smoothSolver:  Solving for nuTilda, Initial residual = 1.83811e-08, Final residual = 9.91296e-11, No Iterations 1
ExecutionTime = 1.19158 s  ClockTime = 1 s

forceCoeffs forces write:
    Cm    = 0
    Cd    = 0
    Cl    = 0
    Cl(f) = 0
    Cl(r) = 0

Time = 58s

smoothSolver:  Solving for Ux, Initial residual = 0.199421, Final residual = 0.131257, No Iterations 1000
smoothSolver:  Solving for Uy, Initial residual = 0.165751, Final residual = 0.000596473, No Iterations 1
smoothSolver:  Solving for Uz, Initial residual = 0.119589, Final residual = 0.00039786, No Iterations 1
GAMG:  Solving for p, Initial residual = 0.495064, Final residual = 0.0219591, No Iterations 1
time step continuity errors : sum local = 1.58577e-15, global = 5.67108e-17, cumulative = 8.01493e-16
smoothSolver:  Solving for nuTilda, Initial residual = 1.21116e-08, Final residual = 6.54113e-11, No Iterations 1
ExecutionTime = 1.21102 s  ClockTime = 1 s

forceCoeffs forces write:
    Cm    = 0
    Cd    = 0
    Cl    = 0
    Cl(f) = 0
    Cl(r) = 0

Time = 59s

smoothSolver:  Solving for Ux, Initial residual = 0.197354, Final residual = 0.133865, No Iterations 1000
smoothSolver:  Solving for Uy, Initial residual = 0.167057, Final residual = 0.000629104, No Iterations 1
smoothSolver:  Solving for Uz, Initial residual = 0.128842, Final residual = 0.000463635, No Iterations 1
GAMG:  Solving for p, Initial residual = 0.492023, Final residual = 0.0216689, No Iterations 1
time step continuity errors : sum local = 1.50333e-15, global = 9.39726e-17, cumulative = 8.95465e-16
smoothSolver:  Solving for nuTilda, Initial residual = 7.95517e-09, Final residual = 7.95517e-09, No Iterations 0
ExecutionTime = 1.2305 s  ClockTime = 1 s

forceCoeffs forces write:
    Cm    = 0
    Cd    = 0
    Cl    = 0
    Cl(f) = 0
    Cl(r) = 0

Time = 60s

smoothSolver:  Solving for Ux, Initial residual = 0.187495, Final residual = 0.130642, No Iterations 1000
smoothSolver:  Solving for Uy, Initial residual = 0.17027, Final residual = 0.000653335, No Iterations 1
smoothSolver:  Solving for Uz, Initial residual = 0.130057, Final residual = 0.000479758, No Iterations 1
GAMG:  Solving for p, Initial residual = 0.478676, Final residual = 0.0211277, No Iterations 1
time step continuity errors : sum local = 1.57865e-15, global = 7.14575e-17, cumulative = 9.66923e-16
smoothSolver:  Solving for nuTilda, Initial residual = 7.95517e-09, Final residual = 7.95517e-09, No Iterations 0
ExecutionTime = 1.24992 s  ClockTime = 1 s

forceCoeffs forces write:
    Cm    = 0
    Cd    = 0
    Cl    = 0
    Cl(f) = 0
    Cl(r) = 0

Time = 61s

smoothSolver:  Solving for Ux, Initial residual = 0.190924, Final residual = 0.128483, No Iterations 1000
smoothSolver:  Solving for Uy, Initial residual = 0.175999, Final residual = 0.000629455, No Iterations 1
smoothSolver:  Solving for Uz, Initial residual = 0.120935, Final residual = 0.000418091, No Iterations 1
GAMG:  Solving for p, Initial residual = 0.432835, Final residual = 0.0203541, No Iterations 1
time step continuity errors : sum local = 1.52678e-15, global = 9.96525e-17, cumulative = 1.06658e-15
smoothSolver:  Solving for nuTilda, Initial residual = 7.95517e-09, Final residual = 7.95517e-09, No Iterations 0
ExecutionTime = 1.26967 s  ClockTime = 1 s

forceCoeffs forces write:
    Cm    = 0
    Cd    = 0
    Cl    = 0
    Cl(f) = 0
    Cl(r) = 0

Time = 62s

smoothSolver:  Solving for Ux, Initial residual = 0.178724, Final residual = 0.122916, No Iterations 1000
smoothSolver:  Solving for Uy, Initial residual = 0.173599, Final residual = 0.000617195, No Iterations 1
smoothSolver:  Solving for Uz, Initial residual = 0.119557, Final residual = 0.000389252, No Iterations 1
GAMG:  Solving for p, Initial residual = 0.429735, Final residual = 0.0189318, No Iterations 1
time step continuity errors : sum local = 1.56207e-15, global = 6.39961e-17, cumulative = 1.13057e-15
smoothSolver:  Solving for nuTilda, Initial residual = 7.95517e-09, Final residual = 7.95517e-09, No Iterations 0
ExecutionTime = 1.29003 s  ClockTime = 1 s

forceCoeffs forces write:
    Cm    = 0
    Cd    = 0
    Cl    = 0
    Cl(f) = 0
    Cl(r) = 0

Time = 63s

smoothSolver:  Solving for Ux, Initial residual = 0.184071, Final residual = 0.123486, No Iterations 1000
smoothSolver:  Solving for Uy, Initial residual = 0.158577, Final residual = 0.000529586, No Iterations 1
smoothSolver:  Solving for Uz, Initial residual = 0.111523, Final residual = 0.000360114, No Iterations 1
GAMG:  Solving for p, Initial residual = 0.382345, Final residual = 0.0181491, No Iterations 1
time step continuity errors : sum local = 1.54909e-15, global = -2.17077e-18, cumulative = 1.1284e-15
smoothSolver:  Solving for nuTilda, Initial residual = 7.95517e-09, Final residual = 7.95517e-09, No Iterations 0
ExecutionTime = 1.31018 s  ClockTime = 1 s

forceCoeffs forces write:
    Cm    = 0
    Cd    = 0
    Cl    = 0
    Cl(f) = 0
    Cl(r) = 0

Time = 64s

smoothSolver:  Solving for Ux, Initial residual = 0.182421, Final residual = 0.125425, No Iterations 1000
smoothSolver:  Solving for Uy, Initial residual = 0.138925, Final residual = 0.000432308, No Iterations 1
smoothSolver:  Solving for Uz, Initial residual = 0.0999411, Final residual = 0.000330665, No Iterations 1
GAMG:  Solving for p, Initial residual = 0.380231, Final residual = 0.0163686, No Iterations 1
time step continuity errors : sum local = 1.55194e-15, global = -4.35113e-17, cumulative = 1.08489e-15
smoothSolver:  Solving for nuTilda, Initial residual = 7.95517e-09, Final residual = 7.95517e-09, No Iterations 0
ExecutionTime = 1.3299 s  ClockTime = 1 s

forceCoeffs forces write:
    Cm    = 0
    Cd    = 0
    Cl    = 0
    Cl(f) = 0
    Cl(r) = 0

Time = 65s

smoothSolver:  Solving for Ux, Initial residual = 0.183653, Final residual = 0.129344, No Iterations 1000
smoothSolver:  Solving for Uy, Initial residual = 0.136126, Final residual = 0.000461199, No Iterations 1
smoothSolver:  Solving for Uz, Initial residual = 0.0944539, Final residual = 0.000355452, No Iterations 1
GAMG:  Solving for p, Initial residual = 0.394596, Final residual = 0.0164264, No Iterations 1
time step continuity errors : sum local = 1.48635e-15, global = -2.43258e-17, cumulative = 1.06056e-15
smoothSolver:  Solving for nuTilda, Initial residual = 7.95517e-09, Final residual = 7.95517e-09, No Iterations 0
ExecutionTime = 1.34953 s  ClockTime = 1 s

forceCoeffs forces write:
    Cm    = 0
    Cd    = 0
    Cl    = 0
    Cl(f) = 0
    Cl(r) = 0

Time = 66s

smoothSolver:  Solving for Ux, Initial residual = 0.183539, Final residual = 0.125428, No Iterations 1000
smoothSolver:  Solving for Uy, Initial residual = 0.135955, Final residual = 0.000470495, No Iterations 1
smoothSolver:  Solving for Uz, Initial residual = 0.0905928, Final residual = 0.000331947, No Iterations 1
GAMG:  Solving for p, Initial residual = 0.387427, Final residual = 0.016488, No Iterations 1
time step continuity errors : sum local = 1.57031e-15, global = 5.95515e-17, cumulative = 1.12011e-15
smoothSolver:  Solving for nuTilda, Initial residual = 7.95517e-09, Final residual = 7.95517e-09, No Iterations 0
ExecutionTime = 1.36902 s  ClockTime = 1 s

forceCoeffs forces write:
    Cm    = 0
    Cd    = 0
    Cl    = 0
    Cl(f) = 0
    Cl(r) = 0

Time = 67s

smoothSolver:  Solving for Ux, Initial residual = 0.185655, Final residual = 0.122063, No Iterations 1000
smoothSolver:  Solving for Uy, Initial residual = 0.13459, Final residual = 0.000470229, No Iterations 1
smoothSolver:  Solving for Uz, Initial residual = 0.0897789, Final residual = 0.000327179, No Iterations 1
GAMG:  Solving for p, Initial residual = 0.403745, Final residual = 0.0204005, No Iterations 1
time step continuity errors : sum local = 1.47236e-15, global = 2.73163e-17, cumulative = 1.14743e-15
smoothSolver:  Solving for nuTilda, Initial residual = 7.95517e-09, Final residual = 7.95517e-09, No Iterations 0
ExecutionTime = 1.3885 s  ClockTime = 1 s

forceCoeffs forces write:
    Cm    = 0
    Cd    = 0
    Cl    = 0
    Cl(f) = 0
    Cl(r) = 0

Time = 68s

smoothSolver:  Solving for Ux, Initial residual = 0.191584, Final residual = 0.131666, No Iterations 1000
smoothSolver:  Solving for Uy, Initial residual = 0.13957, Final residual = 0.000490416, No Iterations 1
smoothSolver:  Solving for Uz, Initial residual = 0.0969158, Final residual = 0.000363602, No Iterations 1
GAMG:  Solving for p, Initial residual = 0.393121, Final residual = 0.0189453, No Iterations 1
time step continuity errors : sum local = 1.59434e-15, global = -4.27655e-18, cumulative = 1.14315e-15
smoothSolver:  Solving for nuTilda, Initial residual = 7.95517e-09, Final residual = 7.95517e-09, No Iterations 0
ExecutionTime = 1.40806 s  ClockTime = 1 s

forceCoeffs forces write:
    Cm    = 0
    Cd    = 0
    Cl    = 0
    Cl(f) = 0
    Cl(r) = 0

Time = 69s

smoothSolver:  Solving for Ux, Initial residual = 0.179157, Final residual = 0.127544, No Iterations 1000
smoothSolver:  Solving for Uy, Initial residual = 0.13527, Final residual = 0.000456987, No Iterations 1
smoothSolver:  Solving for Uz, Initial residual = 0.0994234, Final residual = 0.000362336, No Iterations 1
GAMG:  Solving for p, Initial residual = 0.394566, Final residual = 0.0182866, No Iterations 1
time step continuity errors : sum local = 1.56864e-15, global = -3.6261e-19, cumulative = 1.14279e-15
smoothSolver:  Solving for nuTilda, Initial residual = 7.95517e-09, Final residual = 7.95517e-09, No Iterations 0
ExecutionTime = 1.42843 s  ClockTime = 1 s

forceCoeffs forces write:
    Cm    = 0
    Cd    = 0
    Cl    = 0
    Cl(f) = 0
    Cl(r) = 0

Time = 70s

smoothSolver:  Solving for Ux, Initial residual = 0.182082, Final residual = 0.127717, No Iterations 1000
smoothSolver:  Solving for Uy, Initial residual = 0.134202, Final residual = 0.000441385, No Iterations 1
smoothSolver:  Solving for Uz, Initial residual = 0.0941821, Final residual = 0.000336005, No Iterations 1
GAMG:  Solving for p, Initial residual = 0.394553, Final residual = 0.018147, No Iterations 1
time step continuity errors : sum local = 1.61907e-15, global = 2.39858e-17, cumulative = 1.16678e-15
smoothSolver:  Solving for nuTilda, Initial residual = 7.95517e-09, Final residual = 7.95517e-09, No Iterations 0
ExecutionTime = 1.44791 s  ClockTime = 1 s

forceCoeffs forces write:
    Cm    = 0
    Cd    = 0
    Cl    = 0
    Cl(f) = 0
    Cl(r) = 0

Time = 71s

smoothSolver:  Solving for Ux, Initial residual = 0.178969, Final residual = 0.12711, No Iterations 1000
smoothSolver:  Solving for Uy, Initial residual = 0.135351, Final residual = 0.000468302, No Iterations 1
smoothSolver:  Solving for Uz, Initial residual = 0.0907775, Final residual = 0.000286807, No Iterations 1
GAMG:  Solving for p, Initial residual = 0.390143, Final residual = 0.015967, No Iterations 1
time step continuity errors : sum local = 1.57985e-15, global = 4.48549e-18, cumulative = 1.17126e-15
smoothSolver:  Solving for nuTilda, Initial residual = 7.95517e-09, Final residual = 7.95517e-09, No Iterations 0
ExecutionTime = 1.46744 s  ClockTime = 1 s

forceCoeffs forces write:
    Cm    = 0
    Cd    = 0
    Cl    = 0
    Cl(f) = 0
    Cl(r) = 0

Time = 72s

smoothSolver:  Solving for Ux, Initial residual = 0.180583, Final residual = 0.127774, No Iterations 1000
smoothSolver:  Solving for Uy, Initial residual = 0.129944, Final residual = 0.000465381, No Iterations 1
smoothSolver:  Solving for Uz, Initial residual = 0.0890739, Final residual = 0.00029041, No Iterations 1
GAMG:  Solving for p, Initial residual = 0.361718, Final residual = 0.0155131, No Iterations 1
time step continuity errors : sum local = 1.54946e-15, global = -3.42077e-17, cumulative = 1.13706e-15
smoothSolver:  Solving for nuTilda, Initial residual = 7.95517e-09, Final residual = 7.95517e-09, No Iterations 0
ExecutionTime = 1.48704 s  ClockTime = 1 s

forceCoeffs forces write:
    Cm    = 0
    Cd    = 0
    Cl    = 0
    Cl(f) = 0
    Cl(r) = 0

Time = 73s

smoothSolver:  Solving for Ux, Initial residual = 0.180704, Final residual = 0.122882, No Iterations 1000
smoothSolver:  Solving for Uy, Initial residual = 0.126322, Final residual = 0.000438279, No Iterations 1
smoothSolver:  Solving for Uz, Initial residual = 0.089028, Final residual = 0.000296488, No Iterations 1
GAMG:  Solving for p, Initial residual = 0.367967, Final residual = 0.0166704, No Iterations 1
time step continuity errors : sum local = 1.57848e-15, global = 4.24294e-17, cumulative = 1.17949e-15
smoothSolver:  Solving for nuTilda, Initial residual = 7.95517e-09, Final residual = 7.95517e-09, No Iterations 0
ExecutionTime = 1.50646 s  ClockTime = 1 s

forceCoeffs forces write:
    Cm    = 0
    Cd    = 0
    Cl    = 0
    Cl(f) = 0
    Cl(r) = 0

Time = 74s

smoothSolver:  Solving for Ux, Initial residual = 0.184973, Final residual = 0.123017, No Iterations 1000
smoothSolver:  Solving for Uy, Initial residual = 0.11962, Final residual = 0.000411061, No Iterations 1
smoothSolver:  Solving for Uz, Initial residual = 0.0882477, Final residual = 0.000287392, No Iterations 1
GAMG:  Solving for p, Initial residual = 0.372207, Final residual = 0.017083, No Iterations 1
time step continuity errors : sum local = 1.54102e-15, global = -1.62112e-17, cumulative = 1.16327e-15
smoothSolver:  Solving for nuTilda, Initial residual = 7.95517e-09, Final residual = 7.95517e-09, No Iterations 0
ExecutionTime = 1.52635 s  ClockTime = 1 s

forceCoeffs forces write:
    Cm    = 0
    Cd    = 0
    Cl    = 0
    Cl(f) = 0
    Cl(r) = 0

Time = 75s

smoothSolver:  Solving for Ux, Initial residual = 0.185492, Final residual = 0.118321, No Iterations 1000
smoothSolver:  Solving for Uy, Initial residual = 0.118503, Final residual = 0.000415138, No Iterations 1
smoothSolver:  Solving for Uz, Initial residual = 0.0891892, Final residual = 0.00030105, No Iterations 1
GAMG:  Solving for p, Initial residual = 0.360306, Final residual = 0.0158741, No Iterations 1
time step continuity errors : sum local = 1.52953e-15, global = 3.67259e-17, cumulative = 1.2e-15
smoothSolver:  Solving for nuTilda, Initial residual = 7.95517e-09, Final residual = 7.95517e-09, No Iterations 0
ExecutionTime = 1.54593 s  ClockTime = 2 s

forceCoeffs forces write:
    Cm    = 0
    Cd    = 0
    Cl    = 0
    Cl(f) = 0
    Cl(r) = 0

Time = 76s

smoothSolver:  Solving for Ux, Initial residual = 0.187053, Final residual = 0.11914, No Iterations 1000
smoothSolver:  Solving for Uy, Initial residual = 0.115903, Final residual = 0.000413417, No Iterations 1
smoothSolver:  Solving for Uz, Initial residual = 0.0900808, Final residual = 0.000307974, No Iterations 1
GAMG:  Solving for p, Initial residual = 0.356263, Final residual = 0.014748, No Iterations 1
time step continuity errors : sum local = 1.49779e-15, global = 9.6729e-18, cumulative = 1.20967e-15
smoothSolver:  Solving for nuTilda, Initial residual = 7.95517e-09, Final residual = 7.95517e-09, No Iterations 0
ExecutionTime = 1.56637 s  ClockTime = 2 s

forceCoeffs forces write:
    Cm    = 0
    Cd    = 0
    Cl    = 0
    Cl(f) = 0
    Cl(r) = 0

Time = 77s

smoothSolver:  Solving for Ux, Initial residual = 0.185149, Final residual = 0.126223, No Iterations 1000
smoothSolver:  Solving for Uy, Initial residual = 0.108166, Final residual = 0.000348832, No Iterations 1
smoothSolver:  Solving for Uz, Initial residual = 0.0880563, Final residual = 0.000293172, No Iterations 1
GAMG:  Solving for p, Initial residual = 0.357, Final residual = 0.0142036, No Iterations 1
time step continuity errors : sum local = 1.53829e-15, global = 2.87973e-17, cumulative = 1.23847e-15
smoothSolver:  Solving for nuTilda, Initial residual = 7.95517e-09, Final residual = 7.95517e-09, No Iterations 0
ExecutionTime = 1.58609 s  ClockTime = 2 s

forceCoeffs forces write:
    Cm    = 0
    Cd    = 0
    Cl    = 0
    Cl(f) = 0
    Cl(r) = 0

Time = 78s

smoothSolver:  Solving for Ux, Initial residual = 0.187315, Final residual = 0.122536, No Iterations 1000
smoothSolver:  Solving for Uy, Initial residual = 0.111586, Final residual = 0.000356282, No Iterations 1
smoothSolver:  Solving for Uz, Initial residual = 0.0861561, Final residual = 0.000268008, No Iterations 1
GAMG:  Solving for p, Initial residual = 0.36347, Final residual = 0.0151253, No Iterations 1
time step continuity errors : sum local = 1.60356e-15, global = 7.37859e-17, cumulative = 1.31226e-15
smoothSolver:  Solving for nuTilda, Initial residual = 7.95517e-09, Final residual = 7.95517e-09, No Iterations 0
ExecutionTime = 1.60577 s  ClockTime = 2 s

forceCoeffs forces write:
    Cm    = 0
    Cd    = 0
    Cl    = 0
    Cl(f) = 0
    Cl(r) = 0

Time = 79s

smoothSolver:  Solving for Ux, Initial residual = 0.187276, Final residual = 0.128339, No Iterations 1000
smoothSolver:  Solving for Uy, Initial residual = 0.118861, Final residual = 0.00039631, No Iterations 1
smoothSolver:  Solving for Uz, Initial residual = 0.0895435, Final residual = 0.000273849, No Iterations 1
GAMG:  Solving for p, Initial residual = 0.340983, Final residual = 0.0153707, No Iterations 1
time step continuity errors : sum local = 1.6008e-15, global = 3.89662e-17, cumulative = 1.35122e-15
smoothSolver:  Solving for nuTilda, Initial residual = 7.95517e-09, Final residual = 7.95517e-09, No Iterations 0
ExecutionTime = 1.62854 s  ClockTime = 2 s

forceCoeffs forces write:
    Cm    = 0
    Cd    = 0
    Cl    = 0
    Cl(f) = 0
    Cl(r) = 0

Time = 80s

smoothSolver:  Solving for Ux, Initial residual = 0.187631, Final residual = 0.123155, No Iterations 1000
smoothSolver:  Solving for Uy, Initial residual = 0.124512, Final residual = 0.000423026, No Iterations 1
smoothSolver:  Solving for Uz, Initial residual = 0.0909463, Final residual = 0.000287093, No Iterations 1
GAMG:  Solving for p, Initial residual = 0.359079, Final residual = 0.0164781, No Iterations 1
time step continuity errors : sum local = 1.58099e-15, global = 1.18584e-17, cumulative = 1.36308e-15
smoothSolver:  Solving for nuTilda, Initial residual = 7.95517e-09, Final residual = 7.95517e-09, No Iterations 0
ExecutionTime = 1.65432 s  ClockTime = 2 s

forceCoeffs forces write:
    Cm    = 0
    Cd    = 0
    Cl    = 0
    Cl(f) = 0
    Cl(r) = 0

Time = 81s

smoothSolver:  Solving for Ux, Initial residual = 0.182264, Final residual = 0.122697, No Iterations 1000
smoothSolver:  Solving for Uy, Initial residual = 0.130515, Final residual = 0.000463977, No Iterations 1
smoothSolver:  Solving for Uz, Initial residual = 0.0966985, Final residual = 0.00031979, No Iterations 1
GAMG:  Solving for p, Initial residual = 0.372073, Final residual = 0.0158938, No Iterations 1
time step continuity errors : sum local = 1.59193e-15, global = 6.80482e-17, cumulative = 1.43113e-15
smoothSolver:  Solving for nuTilda, Initial residual = 7.95517e-09, Final residual = 7.95517e-09, No Iterations 0
ExecutionTime = 1.67396 s  ClockTime = 2 s

forceCoeffs forces write:
    Cm    = 0
    Cd    = 0
    Cl    = 0
    Cl(f) = 0
    Cl(r) = 0

Time = 82s

smoothSolver:  Solving for Ux, Initial residual = 0.17903, Final residual = 0.119923, No Iterations 1000
smoothSolver:  Solving for Uy, Initial residual = 0.133017, Final residual = 0.000462359, No Iterations 1
smoothSolver:  Solving for Uz, Initial residual = 0.0982462, Final residual = 0.000328502, No Iterations 1
GAMG:  Solving for p, Initial residual = 0.364517, Final residual = 0.0147734, No Iterations 1
time step continuity errors : sum local = 1.60541e-15, global = 7.75232e-17, cumulative = 1.50865e-15
smoothSolver:  Solving for nuTilda, Initial residual = 7.95517e-09, Final residual = 7.95517e-09, No Iterations 0
ExecutionTime = 1.69303 s  ClockTime = 2 s

forceCoeffs forces write:
    Cm    = 0
    Cd    = 0
    Cl    = 0
    Cl(f) = 0
    Cl(r) = 0

Time = 83s

smoothSolver:  Solving for Ux, Initial residual = 0.187636, Final residual = 0.126249, No Iterations 1000
smoothSolver:  Solving for Uy, Initial residual = 0.125814, Final residual = 0.000453305, No Iterations 1
smoothSolver:  Solving for Uz, Initial residual = 0.0915695, Final residual = 0.000307492, No Iterations 1
GAMG:  Solving for p, Initial residual = 0.3588, Final residual = 0.0152397, No Iterations 1
time step continuity errors : sum local = 1.60292e-15, global = 1.24382e-17, cumulative = 1.52109e-15
smoothSolver:  Solving for nuTilda, Initial residual = 7.95517e-09, Final residual = 7.95517e-09, No Iterations 0
ExecutionTime = 1.71197 s  ClockTime = 2 s

forceCoeffs forces write:
    Cm    = 0
    Cd    = 0
    Cl    = 0
    Cl(f) = 0
    Cl(r) = 0

Time = 84s

smoothSolver:  Solving for Ux, Initial residual = 0.178328, Final residual = 0.12072, No Iterations 1000
smoothSolver:  Solving for Uy, Initial residual = 0.120498, Final residual = 0.000427918, No Iterations 1
smoothSolver:  Solving for Uz, Initial residual = 0.085655, Final residual = 0.000272664, No Iterations 1
GAMG:  Solving for p, Initial residual = 0.359438, Final residual = 0.0160165, No Iterations 1
time step continuity errors : sum local = 1.52621e-15, global = 1.91334e-17, cumulative = 1.54022e-15
smoothSolver:  Solving for nuTilda, Initial residual = 7.95517e-09, Final residual = 7.95517e-09, No Iterations 0
ExecutionTime = 1.73099 s  ClockTime = 2 s

forceCoeffs forces write:
    Cm    = 0
    Cd    = 0
    Cl    = 0
    Cl(f) = 0
    Cl(r) = 0

Time = 85s

smoothSolver:  Solving for Ux, Initial residual = 0.180992, Final residual = 0.12081, No Iterations 1000
smoothSolver:  Solving for Uy, Initial residual = 0.114124, Final residual = 0.000392305, No Iterations 1
smoothSolver:  Solving for Uz, Initial residual = 0.082987, Final residual = 0.000259079, No Iterations 1
GAMG:  Solving for p, Initial residual = 0.366193, Final residual = 0.016391, No Iterations 1
time step continuity errors : sum local = 1.54373e-15, global = 2.1766e-17, cumulative = 1.56199e-15
smoothSolver:  Solving for nuTilda, Initial residual = 7.95517e-09, Final residual = 7.95517e-09, No Iterations 0
ExecutionTime = 1.75017 s  ClockTime = 2 s

forceCoeffs forces write:
    Cm    = 0
    Cd    = 0
    Cl    = 0
    Cl(f) = 0
    Cl(r) = 0

Time = 86s

smoothSolver:  Solving for Ux, Initial residual = 0.17915, Final residual = 0.125088, No Iterations 1000
smoothSolver:  Solving for Uy, Initial residual = 0.118242, Final residual = 0.000415804, No Iterations 1
smoothSolver:  Solving for Uz, Initial residual = 0.0882973, Final residual = 0.000286776, No Iterations 1
GAMG:  Solving for p, Initial residual = 0.376955, Final residual = 0.0158541, No Iterations 1
time step continuity errors : sum local = 1.5493e-15, global = -6.08124e-17, cumulative = 1.50118e-15
smoothSolver:  Solving for nuTilda, Initial residual = 7.95517e-09, Final residual = 7.95517e-09, No Iterations 0
ExecutionTime = 1.76946 s  ClockTime = 2 s

forceCoeffs forces write:
    Cm    = 0
    Cd    = 0
    Cl    = 0
    Cl(f) = 0
    Cl(r) = 0

Time = 87s

smoothSolver:  Solving for Ux, Initial residual = 0.178983, Final residual = 0.119771, No Iterations 1000
smoothSolver:  Solving for Uy, Initial residual = 0.118775, Final residual = 0.000410544, No Iterations 1
smoothSolver:  Solving for Uz, Initial residual = 0.0952782, Final residual = 0.000322777, No Iterations 1
GAMG:  Solving for p, Initial residual = 0.39317, Final residual = 0.0156661, No Iterations 1
time step continuity errors : sum local = 1.65448e-15, global = 1.28158e-17, cumulative = 1.51399e-15
smoothSolver:  Solving for nuTilda, Initial residual = 7.95517e-09, Final residual = 7.95517e-09, No Iterations 0
ExecutionTime = 1.7886 s  ClockTime = 2 s

forceCoeffs forces write:
    Cm    = 0
    Cd    = 0
    Cl    = 0
    Cl(f) = 0
    Cl(r) = 0

Time = 88s

smoothSolver:  Solving for Ux, Initial residual = 0.178266, Final residual = 0.121612, No Iterations 1000
smoothSolver:  Solving for Uy, Initial residual = 0.111876, Final residual = 0.000374172, No Iterations 1
smoothSolver:  Solving for Uz, Initial residual = 0.0965008, Final residual = 0.000339129, No Iterations 1
GAMG:  Solving for p, Initial residual = 0.388335, Final residual = 0.0166094, No Iterations 1
time step continuity errors : sum local = 1.62006e-15, global = -1.60753e-17, cumulative = 1.49792e-15
smoothSolver:  Solving for nuTilda, Initial residual = 7.95517e-09, Final residual = 7.95517e-09, No Iterations 0
ExecutionTime = 1.80777 s  ClockTime = 2 s

forceCoeffs forces write:
    Cm    = 0
    Cd    = 0
    Cl    = 0
    Cl(f) = 0
    Cl(r) = 0

Time = 89s

smoothSolver:  Solving for Ux, Initial residual = 0.180897, Final residual = 0.121382, No Iterations 1000
smoothSolver:  Solving for Uy, Initial residual = 0.122995, Final residual = 0.000412, No Iterations 1
smoothSolver:  Solving for Uz, Initial residual = 0.0978721, Final residual = 0.000334444, No Iterations 1
GAMG:  Solving for p, Initial residual = 0.382709, Final residual = 0.0164161, No Iterations 1
time step continuity errors : sum local = 1.55487e-15, global = -9.72388e-18, cumulative = 1.48819e-15
smoothSolver:  Solving for nuTilda, Initial residual = 7.95517e-09, Final residual = 7.95517e-09, No Iterations 0
ExecutionTime = 1.82698 s  ClockTime = 2 s

forceCoeffs forces write:
    Cm    = 0
    Cd    = 0
    Cl    = 0
    Cl(f) = 0
    Cl(r) = 0

Time = 90s

smoothSolver:  Solving for Ux, Initial residual = 0.181677, Final residual = 0.118727, No Iterations 1000
smoothSolver:  Solving for Uy, Initial residual = 0.124632, Final residual = 0.000421292, No Iterations 1
smoothSolver:  Solving for Uz, Initial residual = 0.100176, Final residual = 0.000334967, No Iterations 1
GAMG:  Solving for p, Initial residual = 0.367911, Final residual = 0.0161675, No Iterations 1
time step continuity errors : sum local = 1.60776e-15, global = 8.14507e-17, cumulative = 1.56964e-15
smoothSolver:  Solving for nuTilda, Initial residual = 7.95517e-09, Final residual = 7.95517e-09, No Iterations 0
ExecutionTime = 1.84584 s  ClockTime = 2 s

forceCoeffs forces write:
    Cm    = 0
    Cd    = 0
    Cl    = 0
    Cl(f) = 0
    Cl(r) = 0

Time = 91s

smoothSolver:  Solving for Ux, Initial residual = 0.181915, Final residual = 0.124649, No Iterations 1000
smoothSolver:  Solving for Uy, Initial residual = 0.120422, Final residual = 0.000400369, No Iterations 1
smoothSolver:  Solving for Uz, Initial residual = 0.091955, Final residual = 0.000292493, No Iterations 1
GAMG:  Solving for p, Initial residual = 0.350053, Final residual = 0.0146933, No Iterations 1
time step continuity errors : sum local = 1.62742e-15, global = 1.09656e-16, cumulative = 1.6793e-15
smoothSolver:  Solving for nuTilda, Initial residual = 7.95517e-09, Final residual = 7.95517e-09, No Iterations 0
ExecutionTime = 1.86477 s  ClockTime = 2 s

forceCoeffs forces write:
    Cm    = 0
    Cd    = 0
    Cl    = 0
    Cl(f) = 0
    Cl(r) = 0

Time = 92s

smoothSolver:  Solving for Ux, Initial residual = 0.180594, Final residual = 0.121392, No Iterations 1000
smoothSolver:  Solving for Uy, Initial residual = 0.123053, Final residual = 0.000396173, No Iterations 1
smoothSolver:  Solving for Uz, Initial residual = 0.0952721, Final residual = 0.000295069, No Iterations 1
GAMG:  Solving for p, Initial residual = 0.353347, Final residual = 0.0139883, No Iterations 1
time step continuity errors : sum local = 1.57944e-15, global = 1.20306e-17, cumulative = 1.69133e-15
smoothSolver:  Solving for nuTilda, Initial residual = 7.95517e-09, Final residual = 7.95517e-09, No Iterations 0
ExecutionTime = 1.88417 s  ClockTime = 2 s

forceCoeffs forces write:
    Cm    = 0
    Cd    = 0
    Cl    = 0
    Cl(f) = 0
    Cl(r) = 0

Time = 93s

smoothSolver:  Solving for Ux, Initial residual = 0.182123, Final residual = 0.12405, No Iterations 1000
smoothSolver:  Solving for Uy, Initial residual = 0.124196, Final residual = 0.00040432, No Iterations 1
smoothSolver:  Solving for Uz, Initial residual = 0.0979947, Final residual = 0.000295971, No Iterations 1
GAMG:  Solving for p, Initial residual = 0.357329, Final residual = 0.0146546, No Iterations 1
time step continuity errors : sum local = 1.54391e-15, global = 3.21535e-18, cumulative = 1.69455e-15
smoothSolver:  Solving for nuTilda, Initial residual = 7.95517e-09, Final residual = 7.95517e-09, No Iterations 0
ExecutionTime = 1.90294 s  ClockTime = 2 s

forceCoeffs forces write:
    Cm    = 0
    Cd    = 0
    Cl    = 0
    Cl(f) = 0
    Cl(r) = 0

Time = 94s

smoothSolver:  Solving for Ux, Initial residual = 0.182951, Final residual = 0.122975, No Iterations 1000
smoothSolver:  Solving for Uy, Initial residual = 0.12135, Final residual = 0.000386861, No Iterations 1
smoothSolver:  Solving for Uz, Initial residual = 0.0936796, Final residual = 0.000291729, No Iterations 1
GAMG:  Solving for p, Initial residual = 0.369312, Final residual = 0.0169967, No Iterations 1
time step continuity errors : sum local = 1.61292e-15, global = -4.23239e-17, cumulative = 1.65222e-15
smoothSolver:  Solving for nuTilda, Initial residual = 7.95517e-09, Final residual = 7.95517e-09, No Iterations 0
ExecutionTime = 1.92229 s  ClockTime = 2 s

forceCoeffs forces write:
    Cm    = 0
    Cd    = 0
    Cl    = 0
    Cl(f) = 0
    Cl(r) = 0

Time = 95s

smoothSolver:  Solving for Ux, Initial residual = 0.18648, Final residual = 0.129359, No Iterations 1000
smoothSolver:  Solving for Uy, Initial residual = 0.126895, Final residual = 0.000406226, No Iterations 1
smoothSolver:  Solving for Uz, Initial residual = 0.0948222, Final residual = 0.000305741, No Iterations 1
GAMG:  Solving for p, Initial residual = 0.379301, Final residual = 0.0165561, No Iterations 1
time step continuity errors : sum local = 1.58495e-15, global = 1.67177e-17, cumulative = 1.66894e-15
smoothSolver:  Solving for nuTilda, Initial residual = 7.95517e-09, Final residual = 7.95517e-09, No Iterations 0
ExecutionTime = 1.94111 s  ClockTime = 2 s

forceCoeffs forces write:
    Cm    = 0
    Cd    = 0
    Cl    = 0
    Cl(f) = 0
    Cl(r) = 0

Time = 96s

smoothSolver:  Solving for Ux, Initial residual = 0.179308, Final residual = 0.124246, No Iterations 1000
smoothSolver:  Solving for Uy, Initial residual = 0.123414, Final residual = 0.000422799, No Iterations 1
smoothSolver:  Solving for Uz, Initial residual = 0.0963376, Final residual = 0.000309745, No Iterations 1
GAMG:  Solving for p, Initial residual = 0.373293, Final residual = 0.0175135, No Iterations 1
time step continuity errors : sum local = 1.53002e-15, global = -5.84009e-18, cumulative = 1.6631e-15
smoothSolver:  Solving for nuTilda, Initial residual = 7.95517e-09, Final residual = 7.95517e-09, No Iterations 0
ExecutionTime = 1.96047 s  ClockTime = 2 s

forceCoeffs forces write:
    Cm    = 0
    Cd    = 0
    Cl    = 0
    Cl(f) = 0
    Cl(r) = 0

Time = 97s

smoothSolver:  Solving for Ux, Initial residual = 0.183191, Final residual = 0.123957, No Iterations 1000
smoothSolver:  Solving for Uy, Initial residual = 0.132751, Final residual = 0.000483904, No Iterations 1
smoothSolver:  Solving for Uz, Initial residual = 0.0964512, Final residual = 0.000310778, No Iterations 1
GAMG:  Solving for p, Initial residual = 0.374421, Final residual = 0.0173178, No Iterations 1
time step continuity errors : sum local = 1.56253e-15, global = 1.00075e-17, cumulative = 1.67311e-15
smoothSolver:  Solving for nuTilda, Initial residual = 7.95517e-09, Final residual = 7.95517e-09, No Iterations 0
ExecutionTime = 1.97961 s  ClockTime = 2 s

forceCoeffs forces write:
    Cm    = 0
    Cd    = 0
    Cl    = 0
    Cl(f) = 0
    Cl(r) = 0

Time = 98s

smoothSolver:  Solving for Ux, Initial residual = 0.175615, Final residual = 0.121607, No Iterations 1000
smoothSolver:  Solving for Uy, Initial residual = 0.133336, Final residual = 0.000468286, No Iterations 1
smoothSolver:  Solving for Uz, Initial residual = 0.0944284, Final residual = 0.000286063, No Iterations 1
GAMG:  Solving for p, Initial residual = 0.366128, Final residual = 0.0161196, No Iterations 1
time step continuity errors : sum local = 1.63016e-15, global = -6.79423e-17, cumulative = 1.60517e-15
smoothSolver:  Solving for nuTilda, Initial residual = 7.95517e-09, Final residual = 7.95517e-09, No Iterations 0
ExecutionTime = 1.99896 s  ClockTime = 2 s

forceCoeffs forces write:
    Cm    = 0
    Cd    = 0
    Cl    = 0
    Cl(f) = 0
    Cl(r) = 0

Time = 99s

smoothSolver:  Solving for Ux, Initial residual = 0.17547, Final residual = 0.122286, No Iterations 1000
smoothSolver:  Solving for Uy, Initial residual = 0.138004, Final residual = 0.000462269, No Iterations 1
smoothSolver:  Solving for Uz, Initial residual = 0.0949441, Final residual = 0.000306922, No Iterations 1
GAMG:  Solving for p, Initial residual = 0.359135, Final residual = 0.014973, No Iterations 1
time step continuity errors : sum local = 1.54062e-15, global = -5.84223e-17, cumulative = 1.54674e-15
smoothSolver:  Solving for nuTilda, Initial residual = 7.95517e-09, Final residual = 7.95517e-09, No Iterations 0
ExecutionTime = 2.01815 s  ClockTime = 2 s

forceCoeffs forces write:
    Cm    = 0
[...]
smoothSolver:  Solving for nuTilda, Initial residual = 7.95517e-09, Final residual = 7.95517e-09, No Iterations 0
ExecutionTime = 18.9044 s  ClockTime = 19 s

forceCoeffs forces write:
    Cm    = 0
    Cd    = 0
    Cl    = 0
    Cl(f) = 0
    Cl(r) = 0

Time = 976s

smoothSolver:  Solving for Ux, Initial residual = 0.180951, Final residual = 0.121334, No Iterations 1000
smoothSolver:  Solving for Uy, Initial residual = 0.11567, Final residual = 0.000372814, No Iterations 1
smoothSolver:  Solving for Uz, Initial residual = 0.0926213, Final residual = 0.000307555, No Iterations 1
GAMG:  Solving for p, Initial residual = 0.37345, Final residual = 0.0155498, No Iterations 1
time step continuity errors : sum local = 1.63719e-15, global = 8.46784e-17, cumulative = 3.58507e-15
smoothSolver:  Solving for nuTilda, Initial residual = 7.95517e-09, Final residual = 7.95517e-09, No Iterations 0
ExecutionTime = 18.9234 s  ClockTime = 19 s

forceCoeffs forces write:
    Cm    = 0
    Cd    = 0
    Cl    = 0
    Cl(f) = 0
    Cl(r) = 0

Time = 977s

smoothSolver:  Solving for Ux, Initial residual = 0.183319, Final residual = 0.119991, No Iterations 1000
smoothSolver:  Solving for Uy, Initial residual = 0.118529, Final residual = 0.000393913, No Iterations 1
smoothSolver:  Solving for Uz, Initial residual = 0.0934294, Final residual = 0.000318343, No Iterations 1
GAMG:  Solving for p, Initial residual = 0.375893, Final residual = 0.0163792, No Iterations 1
time step continuity errors : sum local = 1.54591e-15, global = -3.99084e-19, cumulative = 3.58468e-15
smoothSolver:  Solving for nuTilda, Initial residual = 7.95517e-09, Final residual = 7.95517e-09, No Iterations 0
ExecutionTime = 18.9423 s  ClockTime = 19 s

forceCoeffs forces write:
    Cm    = 0
    Cd    = 0
    Cl    = 0
    Cl(f) = 0
    Cl(r) = 0

Time = 978s

smoothSolver:  Solving for Ux, Initial residual = 0.180769, Final residual = 0.117858, No Iterations 1000
smoothSolver:  Solving for Uy, Initial residual = 0.119021, Final residual = 0.000420778, No Iterations 1
smoothSolver:  Solving for Uz, Initial residual = 0.0926551, Final residual = 0.000312726, No Iterations 1
GAMG:  Solving for p, Initial residual = 0.363701, Final residual = 0.0149304, No Iterations 1
time step continuity errors : sum local = 1.6294e-15, global = -2.14494e-17, cumulative = 3.56323e-15
smoothSolver:  Solving for nuTilda, Initial residual = 7.95517e-09, Final residual = 7.95517e-09, No Iterations 0
ExecutionTime = 18.9613 s  ClockTime = 19 s

forceCoeffs forces write:
    Cm    = 0
    Cd    = 0
    Cl    = 0
    Cl(f) = 0
    Cl(r) = 0

Time = 979s

smoothSolver:  Solving for Ux, Initial residual = 0.178586, Final residual = 0.12172, No Iterations 1000
smoothSolver:  Solving for Uy, Initial residual = 0.120172, Final residual = 0.000385429, No Iterations 1
smoothSolver:  Solving for Uz, Initial residual = 0.0898675, Final residual = 0.000295441, No Iterations 1
GAMG:  Solving for p, Initial residual = 0.376128, Final residual = 0.0171541, No Iterations 1
time step continuity errors : sum local = 1.5965e-15, global = -2.74179e-17, cumulative = 3.53581e-15
smoothSolver:  Solving for nuTilda, Initial residual = 7.95517e-09, Final residual = 7.95517e-09, No Iterations 0
ExecutionTime = 18.9804 s  ClockTime = 19 s

forceCoeffs forces write:
    Cm    = 0
    Cd    = 0
    Cl    = 0
    Cl(f) = 0
    Cl(r) = 0

Time = 980s

smoothSolver:  Solving for Ux, Initial residual = 0.188392, Final residual = 0.124579, No Iterations 1000
smoothSolver:  Solving for Uy, Initial residual = 0.113689, Final residual = 0.000350661, No Iterations 1
smoothSolver:  Solving for Uz, Initial residual = 0.0873095, Final residual = 0.00028326, No Iterations 1
GAMG:  Solving for p, Initial residual = 0.389242, Final residual = 0.017707, No Iterations 1
time step continuity errors : sum local = 1.57823e-15, global = 1.65316e-17, cumulative = 3.55234e-15
smoothSolver:  Solving for nuTilda, Initial residual = 7.95517e-09, Final residual = 7.95517e-09, No Iterations 0
ExecutionTime = 19.0011 s  ClockTime = 19 s

forceCoeffs forces write:
    Cm    = 0
    Cd    = 0
    Cl    = 0
    Cl(f) = 0
    Cl(r) = 0

Time = 981s

smoothSolver:  Solving for Ux, Initial residual = 0.185368, Final residual = 0.1226, No Iterations 1000
smoothSolver:  Solving for Uy, Initial residual = 0.123768, Final residual = 0.000418027, No Iterations 1
smoothSolver:  Solving for Uz, Initial residual = 0.088657, Final residual = 0.000273878, No Iterations 1
GAMG:  Solving for p, Initial residual = 0.369858, Final residual = 0.0162043, No Iterations 1
time step continuity errors : sum local = 1.49104e-15, global = 1.28348e-17, cumulative = 3.56517e-15
smoothSolver:  Solving for nuTilda, Initial residual = 7.95517e-09, Final residual = 7.95517e-09, No Iterations 0
ExecutionTime = 19.0214 s  ClockTime = 19 s

forceCoeffs forces write:
    Cm    = 0
    Cd    = 0
    Cl    = 0
    Cl(f) = 0
    Cl(r) = 0

Time = 982s

smoothSolver:  Solving for Ux, Initial residual = 0.180051, Final residual = 0.121807, No Iterations 1000
smoothSolver:  Solving for Uy, Initial residual = 0.120015, Final residual = 0.000412768, No Iterations 1
smoothSolver:  Solving for Uz, Initial residual = 0.096731, Final residual = 0.000310527, No Iterations 1
GAMG:  Solving for p, Initial residual = 0.373091, Final residual = 0.016499, No Iterations 1
time step continuity errors : sum local = 1.58175e-15, global = 2.86559e-17, cumulative = 3.59383e-15
smoothSolver:  Solving for nuTilda, Initial residual = 7.95517e-09, Final residual = 7.95517e-09, No Iterations 0
ExecutionTime = 19.0411 s  ClockTime = 19 s

forceCoeffs forces write:
    Cm    = 0
    Cd    = 0
    Cl    = 0
    Cl(f) = 0
    Cl(r) = 0

Time = 983s

smoothSolver:  Solving for Ux, Initial residual = 0.17491, Final residual = 0.12101, No Iterations 1000
smoothSolver:  Solving for Uy, Initial residual = 0.12538, Final residual = 0.000426205, No Iterations 1
smoothSolver:  Solving for Uz, Initial residual = 0.0980483, Final residual = 0.000329174, No Iterations 1
GAMG:  Solving for p, Initial residual = 0.377047, Final residual = 0.0180469, No Iterations 1
time step continuity errors : sum local = 1.6086e-15, global = 5.47515e-17, cumulative = 3.64858e-15
smoothSolver:  Solving for nuTilda, Initial residual = 7.95517e-09, Final residual = 7.95517e-09, No Iterations 0
ExecutionTime = 19.0626 s  ClockTime = 19 s

forceCoeffs forces write:
    Cm    = 0
    Cd    = 0
    Cl    = 0
    Cl(f) = 0
    Cl(r) = 0

Time = 984s

smoothSolver:  Solving for Ux, Initial residual = 0.179741, Final residual = 0.121767, No Iterations 1000
smoothSolver:  Solving for Uy, Initial residual = 0.129741, Final residual = 0.000451117, No Iterations 1
smoothSolver:  Solving for Uz, Initial residual = 0.100416, Final residual = 0.000358574, No Iterations 1
GAMG:  Solving for p, Initial residual = 0.359624, Final residual = 0.0166494, No Iterations 1
time step continuity errors : sum local = 1.57623e-15, global = 6.18245e-17, cumulative = 3.71041e-15
smoothSolver:  Solving for nuTilda, Initial residual = 7.95517e-09, Final residual = 7.95517e-09, No Iterations 0
ExecutionTime = 19.0817 s  ClockTime = 19 s

forceCoeffs forces write:
    Cm    = 0
    Cd    = 0
    Cl    = 0
    Cl(f) = 0
    Cl(r) = 0

Time = 985s

smoothSolver:  Solving for Ux, Initial residual = 0.185215, Final residual = 0.117545, No Iterations 1000
smoothSolver:  Solving for Uy, Initial residual = 0.139093, Final residual = 0.000528113, No Iterations 1
smoothSolver:  Solving for Uz, Initial residual = 0.0995403, Final residual = 0.000346455, No Iterations 1
GAMG:  Solving for p, Initial residual = 0.351936, Final residual = 0.0172573, No Iterations 1
time step continuity errors : sum local = 1.57117e-15, global = 7.20677e-17, cumulative = 3.78247e-15
smoothSolver:  Solving for nuTilda, Initial residual = 7.95517e-09, Final residual = 7.95517e-09, No Iterations 0
ExecutionTime = 19.1007 s  ClockTime = 19 s

forceCoeffs forces write:
    Cm    = 0
    Cd    = 0
    Cl    = 0
    Cl(f) = 0
    Cl(r) = 0

Time = 986s

smoothSolver:  Solving for Ux, Initial residual = 0.177107, Final residual = 0.118326, No Iterations 1000
smoothSolver:  Solving for Uy, Initial residual = 0.139514, Final residual = 0.000573364, No Iterations 1
smoothSolver:  Solving for Uz, Initial residual = 0.093209, Final residual = 0.000320769, No Iterations 1
GAMG:  Solving for p, Initial residual = 0.365332, Final residual = 0.0152661, No Iterations 1
time step continuity errors : sum local = 1.61035e-15, global = -1.79585e-17, cumulative = 3.76452e-15
smoothSolver:  Solving for nuTilda, Initial residual = 7.95517e-09, Final residual = 7.95517e-09, No Iterations 0
ExecutionTime = 19.1197 s  ClockTime = 19 s

forceCoeffs forces write:
    Cm    = 0
    Cd    = 0
    Cl    = 0
    Cl(f) = 0
    Cl(r) = 0

Time = 987s

smoothSolver:  Solving for Ux, Initial residual = 0.173495, Final residual = 0.122822, No Iterations 1000
smoothSolver:  Solving for Uy, Initial residual = 0.130956, Final residual = 0.000500484, No Iterations 1
smoothSolver:  Solving for Uz, Initial residual = 0.0967577, Final residual = 0.000341159, No Iterations 1
GAMG:  Solving for p, Initial residual = 0.386706, Final residual = 0.0176271, No Iterations 1
time step continuity errors : sum local = 1.52819e-15, global = 4.0878e-17, cumulative = 3.80539e-15
smoothSolver:  Solving for nuTilda, Initial residual = 7.95517e-09, Final residual = 7.95517e-09, No Iterations 0
ExecutionTime = 19.1387 s  ClockTime = 19 s

forceCoeffs forces write:
    Cm    = 0
    Cd    = 0
    Cl    = 0
    Cl(f) = 0
    Cl(r) = 0

Time = 988s

smoothSolver:  Solving for Ux, Initial residual = 0.170479, Final residual = 0.117949, No Iterations 1000
smoothSolver:  Solving for Uy, Initial residual = 0.130434, Final residual = 0.000485693, No Iterations 1
smoothSolver:  Solving for Uz, Initial residual = 0.104033, Final residual = 0.00040493, No Iterations 1
GAMG:  Solving for p, Initial residual = 0.36498, Final residual = 0.014753, No Iterations 1
time step continuity errors : sum local = 1.54146e-15, global = 1.17909e-17, cumulative = 3.81718e-15
smoothSolver:  Solving for nuTilda, Initial residual = 7.95517e-09, Final residual = 7.95517e-09, No Iterations 0
ExecutionTime = 19.1579 s  ClockTime = 19 s

forceCoeffs forces write:
    Cm    = 0
    Cd    = 0
    Cl    = 0
    Cl(f) = 0
    Cl(r) = 0

Time = 989s

smoothSolver:  Solving for Ux, Initial residual = 0.169856, Final residual = 0.121474, No Iterations 1000
smoothSolver:  Solving for Uy, Initial residual = 0.13841, Final residual = 0.000535521, No Iterations 1
smoothSolver:  Solving for Uz, Initial residual = 0.0976283, Final residual = 0.000374839, No Iterations 1
GAMG:  Solving for p, Initial residual = 0.363447, Final residual = 0.0151598, No Iterations 1
time step continuity errors : sum local = 1.52307e-15, global = -7.58525e-17, cumulative = 3.74133e-15
smoothSolver:  Solving for nuTilda, Initial residual = 7.95517e-09, Final residual = 7.95517e-09, No Iterations 0
ExecutionTime = 19.177 s  ClockTime = 19 s

forceCoeffs forces write:
    Cm    = 0
    Cd    = 0
    Cl    = 0
    Cl(f) = 0
    Cl(r) = 0

Time = 990s

smoothSolver:  Solving for Ux, Initial residual = 0.175409, Final residual = 0.123165, No Iterations 1000
smoothSolver:  Solving for Uy, Initial residual = 0.126348, Final residual = 0.000459656, No Iterations 1
smoothSolver:  Solving for Uz, Initial residual = 0.0883633, Final residual = 0.000307113, No Iterations 1
GAMG:  Solving for p, Initial residual = 0.352573, Final residual = 0.0154643, No Iterations 1
time step continuity errors : sum local = 1.57885e-15, global = -3.07905e-17, cumulative = 3.71054e-15
smoothSolver:  Solving for nuTilda, Initial residual = 7.95517e-09, Final residual = 7.95517e-09, No Iterations 0
ExecutionTime = 19.196 s  ClockTime = 19 s

forceCoeffs forces write:
    Cm    = 0
    Cd    = 0
    Cl    = 0
    Cl(f) = 0
    Cl(r) = 0

Time = 991s

smoothSolver:  Solving for Ux, Initial residual = 0.175812, Final residual = 0.124291, No Iterations 1000
smoothSolver:  Solving for Uy, Initial residual = 0.117076, Final residual = 0.000376613, No Iterations 1
smoothSolver:  Solving for Uz, Initial residual = 0.0844644, Final residual = 0.000244949, No Iterations 1
GAMG:  Solving for p, Initial residual = 0.332935, Final residual = 0.0148354, No Iterations 1
time step continuity errors : sum local = 1.60678e-15, global = -5.99749e-17, cumulative = 3.65057e-15
smoothSolver:  Solving for nuTilda, Initial residual = 7.95517e-09, Final residual = 7.95517e-09, No Iterations 0
ExecutionTime = 19.2149 s  ClockTime = 19 s

forceCoeffs forces write:
    Cm    = 0
    Cd    = 0
    Cl    = 0
    Cl(f) = 0
    Cl(r) = 0

Time = 992s

smoothSolver:  Solving for Ux, Initial residual = 0.180984, Final residual = 0.120482, No Iterations 1000
smoothSolver:  Solving for Uy, Initial residual = 0.129758, Final residual = 0.000507446, No Iterations 1
smoothSolver:  Solving for Uz, Initial residual = 0.0821729, Final residual = 0.000240429, No Iterations 1
GAMG:  Solving for p, Initial residual = 0.334761, Final residual = 0.0139811, No Iterations 1
time step continuity errors : sum local = 1.54319e-15, global = -8.31876e-17, cumulative = 3.56738e-15
smoothSolver:  Solving for nuTilda, Initial residual = 7.95517e-09, Final residual = 7.95517e-09, No Iterations 0
ExecutionTime = 19.2338 s  ClockTime = 19 s

forceCoeffs forces write:
    Cm    = 0
    Cd    = 0
    Cl    = 0
    Cl(f) = 0
    Cl(r) = 0

Time = 993s

smoothSolver:  Solving for Ux, Initial residual = 0.179038, Final residual = 0.121439, No Iterations 1000
smoothSolver:  Solving for Uy, Initial residual = 0.134811, Final residual = 0.000535213, No Iterations 1
smoothSolver:  Solving for Uz, Initial residual = 0.0844561, Final residual = 0.000254404, No Iterations 1
GAMG:  Solving for p, Initial residual = 0.330679, Final residual = 0.0139497, No Iterations 1
time step continuity errors : sum local = 1.51294e-15, global = -6.45056e-17, cumulative = 3.50287e-15
smoothSolver:  Solving for nuTilda, Initial residual = 7.95517e-09, Final residual = 7.95517e-09, No Iterations 0
ExecutionTime = 19.2527 s  ClockTime = 19 s

forceCoeffs forces write:
    Cm    = 0
    Cd    = 0
    Cl    = 0
    Cl(f) = 0
    Cl(r) = 0

Time = 994s

smoothSolver:  Solving for Ux, Initial residual = 0.184787, Final residual = 0.119711, No Iterations 1000
smoothSolver:  Solving for Uy, Initial residual = 0.129955, Final residual = 0.000494542, No Iterations 1
smoothSolver:  Solving for Uz, Initial residual = 0.08319, Final residual = 0.000267802, No Iterations 1
GAMG:  Solving for p, Initial residual = 0.350673, Final residual = 0.0142418, No Iterations 1
time step continuity errors : sum local = 1.57447e-15, global = -2.16427e-17, cumulative = 3.48123e-15
smoothSolver:  Solving for nuTilda, Initial residual = 7.95517e-09, Final residual = 7.95517e-09, No Iterations 0
ExecutionTime = 19.2724 s  ClockTime = 19 s

forceCoeffs forces write:
    Cm    = 0
    Cd    = 0
    Cl    = 0
    Cl(f) = 0
    Cl(r) = 0

Time = 995s

smoothSolver:  Solving for Ux, Initial residual = 0.184617, Final residual = 0.122194, No Iterations 1000
smoothSolver:  Solving for Uy, Initial residual = 0.119851, Final residual = 0.000417999, No Iterations 1
smoothSolver:  Solving for Uz, Initial residual = 0.0846085, Final residual = 0.000276457, No Iterations 1
GAMG:  Solving for p, Initial residual = 0.37654, Final residual = 0.0158226, No Iterations 1
time step continuity errors : sum local = 1.64896e-15, global = 3.64426e-17, cumulative = 3.51767e-15
smoothSolver:  Solving for nuTilda, Initial residual = 7.95517e-09, Final residual = 7.95517e-09, No Iterations 0
ExecutionTime = 19.2913 s  ClockTime = 19 s

forceCoeffs forces write:
    Cm    = 0
    Cd    = 0
    Cl    = 0
    Cl(f) = 0
    Cl(r) = 0

Time = 996s

smoothSolver:  Solving for Ux, Initial residual = 0.182175, Final residual = 0.122804, No Iterations 1000
smoothSolver:  Solving for Uy, Initial residual = 0.114895, Final residual = 0.000375147, No Iterations 1
smoothSolver:  Solving for Uz, Initial residual = 0.0863427, Final residual = 0.000291094, No Iterations 1
GAMG:  Solving for p, Initial residual = 0.351308, Final residual = 0.0141772, No Iterations 1
time step continuity errors : sum local = 1.73786e-15, global = 2.46868e-17, cumulative = 3.54236e-15
smoothSolver:  Solving for nuTilda, Initial residual = 7.95517e-09, Final residual = 7.95517e-09, No Iterations 0
ExecutionTime = 19.3102 s  ClockTime = 19 s

forceCoeffs forces write:
    Cm    = 0
    Cd    = 0
    Cl    = 0
    Cl(f) = 0
    Cl(r) = 0

Time = 997s

smoothSolver:  Solving for Ux, Initial residual = 0.187385, Final residual = 0.126235, No Iterations 1000
smoothSolver:  Solving for Uy, Initial residual = 0.129207, Final residual = 0.000460287, No Iterations 1
smoothSolver:  Solving for Uz, Initial residual = 0.0876124, Final residual = 0.000275927, No Iterations 1
GAMG:  Solving for p, Initial residual = 0.342798, Final residual = 0.0157172, No Iterations 1
time step continuity errors : sum local = 1.60875e-15, global = -1.38532e-17, cumulative = 3.52851e-15
smoothSolver:  Solving for nuTilda, Initial residual = 7.95517e-09, Final residual = 7.95517e-09, No Iterations 0
ExecutionTime = 19.3293 s  ClockTime = 19 s

forceCoeffs forces write:
    Cm    = 0
    Cd    = 0
    Cl    = 0
    Cl(f) = 0
    Cl(r) = 0

Time = 998s

smoothSolver:  Solving for Ux, Initial residual = 0.181188, Final residual = 0.123375, No Iterations 1000
smoothSolver:  Solving for Uy, Initial residual = 0.129524, Final residual = 0.000445543, No Iterations 1
smoothSolver:  Solving for Uz, Initial residual = 0.0847057, Final residual = 0.000257484, No Iterations 1
GAMG:  Solving for p, Initial residual = 0.331921, Final residual = 0.0151043, No Iterations 1
time step continuity errors : sum local = 1.56974e-15, global = -1.85739e-17, cumulative = 3.50993e-15
smoothSolver:  Solving for nuTilda, Initial residual = 7.95517e-09, Final residual = 7.95517e-09, No Iterations 0
ExecutionTime = 19.3483 s  ClockTime = 19 s

forceCoeffs forces write:
    Cm    = 0
    Cd    = 0
    Cl    = 0
    Cl(f) = 0
    Cl(r) = 0

Time = 999s

smoothSolver:  Solving for Ux, Initial residual = 0.182231, Final residual = 0.122548, No Iterations 1000
smoothSolver:  Solving for Uy, Initial residual = 0.127127, Final residual = 0.000449395, No Iterations 1
smoothSolver:  Solving for Uz, Initial residual = 0.0843604, Final residual = 0.000264811, No Iterations 1
GAMG:  Solving for p, Initial residual = 0.33616, Final residual = 0.0133021, No Iterations 1
time step continuity errors : sum local = 1.61973e-15, global = -1.51526e-17, cumulative = 3.49478e-15
smoothSolver:  Solving for nuTilda, Initial residual = 7.95517e-09, Final residual = 7.95517e-09, No Iterations 0
ExecutionTime = 19.3676 s  ClockTime = 19 s

forceCoeffs forces write:
    Cm    = 0
    Cd    = 0
    Cl    = 0
    Cl(f) = 0
    Cl(r) = 0

Time = 1000s

smoothSolver:  Solving for Ux, Initial residual = 0.179417, Final residual = 0.124268, No Iterations 1000
smoothSolver:  Solving for Uy, Initial residual = 0.121702, Final residual = 0.00037158, No Iterations 1
smoothSolver:  Solving for Uz, Initial residual = 0.0904742, Final residual = 0.000295549, No Iterations 1
GAMG:  Solving for p, Initial residual = 0.350939, Final residual = 0.0140577, No Iterations 1
time step continuity errors : sum local = 1.58633e-15, global = -4.53049e-17, cumulative = 3.44948e-15
smoothSolver:  Solving for nuTilda, Initial residual = 7.95517e-09, Final residual = 7.95517e-09, No Iterations 0
ExecutionTime = 19.3873 s  ClockTime = 19 s

streamlines streamlines write:
    Seeded 20 particles
    Sampled 1720 locations
forceCoeffs forces write:
    Cm    = 0
    Cd    = 0
    Cl    = 0
    Cl(f) = 0
    Cl(r) = 0

End

